xflr5 v6.61

Business Jet Wing
T1-10.0 m/s-Panel-Inviscid
QInf  =   10.000000 m/s
Alpha =    0.000000
Beta  =    0.000°
Phi   =    0.000°
Ctrl  =    0.000
CL    =    0.327220
Cy    =   -0.000000
Cd    =    0.003353     ICd   =    0.003353     PCd   =    0.000000
Cl   = -3.42878e-15
Cm   =   -0.277046
ICn   =    0.000000     PCn   =    0.000000 
XCP   =    1.782956     YCP   =    0.000000     ZCP   =    0.510701  
XNP   =    0.000000
Bending = 1455.753649

Main Wing
  y-span        Chord      Ai         Cl        PCd          ICd        CmGeom    CmAirf@chord/4    XTrtop    XTrBot      XCP       BM
   -9.7758     1.0461    -1.447    0.091710    0.000000    0.002316   -0.263000   -0.024213     0.0000    0.0000    0.4826    0.0000
   -9.7090     1.0586    -1.438    0.155033    0.000000    0.003891   -0.377417   -0.034891     0.0000    0.0000    0.4832    0.0135
   -9.5759     1.0835    -1.287    0.213310    0.000000    0.004795   -0.473791   -0.039791     0.0000    0.0000    0.4537    0.1777
   -9.3774     1.1206    -1.081    0.259168    0.000000    0.004893   -0.558493   -0.046441     0.0000    0.0000    0.4424    0.9016
   -9.1148     1.1697    -0.885    0.292440    0.000000    0.004519   -0.602261   -0.051202     0.0000    0.0000    0.4352    2.9657
   -8.7900     1.2305    -0.729    0.315243    0.000000    0.004013   -0.609862   -0.054102     0.0000    0.0000    0.4299    7.5736
   -8.4051     1.3024    -0.617    0.330094    0.000000    0.003557   -0.591819   -0.055784     0.0000    0.0000    0.4263   16.3680
   -7.9628     1.3851    -0.543    0.339132    0.000000    0.003215   -0.557582   -0.056748     0.0000    0.0000    0.4240   31.4247
   -7.4661     1.4780    -0.498    0.343967    0.000000    0.002988   -0.514291   -0.057294     0.0000    0.0000    0.4230   55.2280
   -6.9184     1.5804    -0.474    0.345744    0.000000    0.002862   -0.466932   -0.057589     0.0000    0.0000    0.4229   90.6274
   -6.3235     1.6916    -0.467    0.345246    0.000000    0.002816   -0.418823   -0.057727     0.0000    0.0000    0.4237   140.7719
   -5.6853     1.8110    -0.473    0.342988    0.000000    0.002829   -0.372043   -0.057761     0.0000    0.0000    0.4251   209.0206
   -5.0084     1.9375    -0.488    0.339291    0.000000    0.002888   -0.327822   -0.057722     0.0000    0.0000    0.4271   298.8268
   -4.2972     2.0705    -0.510    0.334333    0.000000    0.002978   -0.286826   -0.057628     0.0000    0.0000    0.4297   413.5969
   -3.5566     2.2090    -0.539    0.328183    0.000000    0.003088   -0.249348   -0.057495     0.0000    0.0000    0.4331   556.5253
   -2.7918     2.3520    -0.572    0.320817    0.000000    0.003206   -0.215469   -0.057348     0.0000    0.0000    0.4373   730.4115
   -2.0079     2.4986    -0.608    0.312132    0.000000    0.003317   -0.185187   -0.057252     0.0000    0.0000    0.4429   937.4637
   -1.2102     2.6477    -0.647    0.301956    0.000000    0.003414   -0.158582   -0.057400     0.0000    0.0000    0.4507   1179.0995
   -0.4043     2.7984    -0.712    0.289596    0.000000    0.003618   -0.136225   -0.058359     0.0000    0.0000    0.4635   1455.7536
    0.4043     2.7984    -0.712    0.289596    0.000000    0.003618   -0.136225   -0.058359     0.0000    0.0000    0.4635   1455.7536
    1.2102     2.6477    -0.647    0.301956    0.000000    0.003414   -0.158582   -0.057400     0.0000    0.0000    0.4507   1179.0995
    2.0079     2.4986    -0.608    0.312132    0.000000    0.003317   -0.185187   -0.057252     0.0000    0.0000    0.4429   937.4637
    2.7918     2.3520    -0.572    0.320817    0.000000    0.003206   -0.215469   -0.057348     0.0000    0.0000    0.4373   730.4115
    3.5566     2.2090    -0.539    0.328183    0.000000    0.003088   -0.249348   -0.057495     0.0000    0.0000    0.4331   556.5253
    4.2972     2.0705    -0.510    0.334333    0.000000    0.002978   -0.286826   -0.057628     0.0000    0.0000    0.4297   413.5969
    5.0084     1.9375    -0.488    0.339291    0.000000    0.002888   -0.327822   -0.057722     0.0000    0.0000    0.4271   298.8268
    5.6853     1.8110    -0.473    0.342988    0.000000    0.002829   -0.372043   -0.057761     0.0000    0.0000    0.4251   209.0206
    6.3235     1.6916    -0.467    0.345246    0.000000    0.002816   -0.418823   -0.057727     0.0000    0.0000    0.4237   140.7719
    6.9184     1.5804    -0.474    0.345744    0.000000    0.002862   -0.466932   -0.057589     0.0000    0.0000    0.4229   90.6274
    7.4661     1.4780    -0.498    0.343967    0.000000    0.002988   -0.514291   -0.057294     0.0000    0.0000    0.4230   55.2280
    7.9628     1.3851    -0.543    0.339132    0.000000    0.003215   -0.557582   -0.056748     0.0000    0.0000    0.4240   31.4247
    8.4051     1.3024    -0.617    0.330094    0.000000    0.003557   -0.591819   -0.055784     0.0000    0.0000    0.4263   16.3680
    8.7900     1.2305    -0.729    0.315243    0.000000    0.004013   -0.609862   -0.054102     0.0000    0.0000    0.4299    7.5736
    9.1148     1.1697    -0.885    0.292440    0.000000    0.004519   -0.602261   -0.051202     0.0000    0.0000    0.4352    2.9657
    9.3774     1.1206    -1.081    0.259168    0.000000    0.004893   -0.558493   -0.046441     0.0000    0.0000    0.4424    0.9016
    9.5759     1.0835    -1.287    0.213310    0.000000    0.004795   -0.473791   -0.039791     0.0000    0.0000    0.4537    0.1777
    9.7090     1.0586    -1.438    0.155033    0.000000    0.003891   -0.377417   -0.034891     0.0000    0.0000    0.4832    0.0135
    9.7758     1.0461    -1.447    0.091710    0.000000    0.002316   -0.263000   -0.024213     0.0000    0.0000    0.4826    0.0000


Main Wing Cp Coefficients
 Panel     CtrlPt.x        CtrlPt.y        CtrlPt.z       Nx      Ny       Nz        Area       Cp
Main WingCp Coefficients
Strip 1
  13       3.239e+00      -9.753e+00       6.666e-01          -0.022          -0.071          -0.997       5.096e-04          0.0964
  14       3.209e+00      -9.753e+00       6.664e-01           0.012          -0.069          -0.998       1.499e-03          0.0652
  15       3.151e+00      -9.753e+00       6.647e-01           0.042          -0.068          -0.997       2.403e-03          0.0198
  16       3.068e+00      -9.753e+00       6.603e-01           0.061          -0.067          -0.996       3.170e-03         -0.0168
  17       2.964e+00      -9.754e+00       6.538e-01           0.066          -0.066          -0.996       3.751e-03         -0.0469
  18       2.847e+00      -9.754e+00       6.466e-01           0.057          -0.067          -0.996       4.112e-03         -0.0750
  19       2.723e+00      -9.755e+00       6.409e-01           0.034          -0.070          -0.997       4.231e-03         -0.1011
  20       2.598e+00      -9.755e+00       6.395e-01          -0.012          -0.077          -0.997       4.106e-03         -0.1075
  21       2.481e+00      -9.755e+00       6.426e-01          -0.042          -0.081          -0.996       3.748e-03         -0.0889
  22       2.378e+00      -9.754e+00       6.472e-01          -0.048          -0.082          -0.995       3.169e-03         -0.0823
  23       2.294e+00      -9.754e+00       6.513e-01          -0.052          -0.083          -0.995       2.405e-03         -0.1370
  24       2.236e+00      -9.754e+00       6.558e-01          -0.118          -0.097          -0.988       1.510e-03         -0.4524
  25       2.206e+00      -9.753e+00       6.650e-01          -0.645          -0.196          -0.739       6.790e-04         -0.1520
  26       2.206e+00      -9.752e+00       6.845e-01          -0.846          -0.155           0.510       1.021e-03          0.7118
  27       2.236e+00      -9.750e+00       7.120e-01          -0.544          -0.067           0.837       1.804e-03         -0.0094
  28       2.294e+00      -9.748e+00       7.403e-01          -0.356          -0.021           0.934       2.576e-03         -0.2650
  29       2.378e+00      -9.746e+00       7.642e-01          -0.211           0.010           0.977       3.236e-03         -0.3563
  30       2.481e+00      -9.745e+00       7.794e-01          -0.090           0.034           0.995       3.751e-03         -0.3791
  31       2.598e+00      -9.745e+00       7.828e-01           0.028           0.053           0.998       4.096e-03         -0.3580
  32       2.723e+00      -9.746e+00       7.723e-01           0.138           0.069           0.988       4.259e-03         -0.2773
  33       2.847e+00      -9.747e+00       7.508e-01           0.203           0.076           0.976       4.184e-03         -0.1739
  34       2.964e+00      -9.749e+00       7.248e-01           0.233           0.078           0.969       3.844e-03         -0.0901
  35       3.068e+00      -9.751e+00       7.003e-01           0.230           0.078           0.970       3.249e-03         -0.0378
  36       3.151e+00      -9.752e+00       6.819e-01           0.199           0.077           0.977       2.449e-03         -0.0099
  37       3.209e+00      -9.753e+00       6.712e-01           0.149           0.075           0.986       1.515e-03          0.0150
  38       3.239e+00      -9.753e+00       6.671e-01           0.097           0.073           0.993       5.118e-04          0.0302
Strip 2
  39       3.237e+00      -9.686e+00       6.619e-01          -0.022          -0.071          -0.997       1.543e-03          0.1686
  40       3.206e+00      -9.686e+00       6.618e-01           0.012          -0.069          -0.998       4.540e-03          0.1437
  41       3.147e+00      -9.687e+00       6.600e-01           0.042          -0.068          -0.997       7.279e-03          0.1019
  42       3.063e+00      -9.687e+00       6.555e-01           0.061          -0.067          -0.996       9.601e-03          0.0514
  43       2.959e+00      -9.687e+00       6.489e-01           0.066          -0.066          -0.996       1.136e-02         -0.0045
  44       2.840e+00      -9.688e+00       6.417e-01           0.057          -0.067          -0.996       1.245e-02         -0.0589
  45       2.714e+00      -9.688e+00       6.360e-01           0.034          -0.070          -0.997       1.282e-02         -0.1077
  46       2.588e+00      -9.688e+00       6.345e-01          -0.012          -0.077          -0.997       1.244e-02         -0.1239
  47       2.469e+00      -9.688e+00       6.377e-01          -0.042          -0.081          -0.996       1.135e-02         -0.1015
  48       2.365e+00      -9.688e+00       6.423e-01          -0.048          -0.082          -0.995       9.597e-03         -0.0945
  49       2.281e+00      -9.687e+00       6.465e-01          -0.052          -0.083          -0.995       7.285e-03         -0.1667
  50       2.222e+00      -9.687e+00       6.511e-01          -0.118          -0.097          -0.988       4.575e-03         -0.5323
  51       2.191e+00      -9.687e+00       6.604e-01          -0.645          -0.196          -0.739       2.057e-03         -0.3001
  52       2.191e+00      -9.685e+00       6.800e-01          -0.846          -0.155           0.510       3.093e-03          0.8118
  53       2.222e+00      -9.683e+00       7.079e-01          -0.544          -0.067           0.837       5.463e-03          0.0482
  54       2.281e+00      -9.681e+00       7.365e-01          -0.356          -0.021           0.934       7.801e-03         -0.3207
  55       2.365e+00      -9.680e+00       7.607e-01          -0.211           0.010           0.977       9.800e-03         -0.4633
  56       2.469e+00      -9.679e+00       7.761e-01          -0.090           0.034           0.995       1.136e-02         -0.4998
  57       2.588e+00      -9.678e+00       7.795e-01           0.028           0.053           0.998       1.241e-02         -0.4723
  58       2.714e+00      -9.679e+00       7.689e-01           0.138           0.069           0.988       1.290e-02         -0.3617
  59       2.840e+00      -9.681e+00       7.472e-01           0.203           0.076           0.976       1.267e-02         -0.2171
  60       2.959e+00      -9.682e+00       7.208e-01           0.233           0.078           0.969       1.164e-02         -0.0948
  61       3.063e+00      -9.684e+00       6.960e-01           0.230           0.078           0.970       9.840e-03         -0.0018
  62       3.147e+00      -9.685e+00       6.774e-01           0.199           0.077           0.977       7.419e-03          0.0684
  63       3.206e+00      -9.686e+00       6.666e-01           0.149           0.075           0.986       4.590e-03          0.1183
  64       3.237e+00      -9.686e+00       6.625e-01           0.097           0.073           0.993       1.550e-03          0.1425
Strip 3
  65       3.231e+00      -9.554e+00       6.526e-01          -0.022          -0.071          -0.997       2.621e-03          0.2165
  66       3.200e+00      -9.554e+00       6.525e-01           0.012          -0.069          -0.998       7.709e-03          0.1919
  67       3.140e+00      -9.554e+00       6.506e-01           0.042          -0.068          -0.997       1.236e-02          0.1473
  68       3.054e+00      -9.554e+00       6.461e-01           0.061          -0.067          -0.996       1.630e-02          0.0875
  69       2.947e+00      -9.554e+00       6.393e-01           0.066          -0.066          -0.996       1.929e-02          0.0188
  70       2.825e+00      -9.555e+00       6.319e-01           0.057          -0.067          -0.996       2.115e-02         -0.0490
  71       2.696e+00      -9.555e+00       6.261e-01           0.034          -0.070          -0.997       2.176e-02         -0.1099
  72       2.567e+00      -9.555e+00       6.246e-01          -0.012          -0.077          -0.997       2.112e-02         -0.1315
  73       2.446e+00      -9.555e+00       6.278e-01          -0.042          -0.081          -0.996       1.928e-02         -0.1076
  74       2.339e+00      -9.555e+00       6.326e-01          -0.048          -0.082          -0.995       1.630e-02         -0.0972
  75       2.253e+00      -9.555e+00       6.368e-01          -0.052          -0.083          -0.995       1.237e-02         -0.1640
  76       2.193e+00      -9.554e+00       6.415e-01          -0.118          -0.097          -0.988       7.768e-03         -0.5161
  77       2.161e+00      -9.554e+00       6.510e-01          -0.645          -0.196          -0.739       3.494e-03         -0.2964
  78       2.161e+00      -9.552e+00       6.711e-01          -0.846          -0.156           0.510       5.251e-03          0.8715
  79       2.193e+00      -9.551e+00       6.997e-01          -0.544          -0.067           0.836       9.275e-03          0.0919
  80       2.253e+00      -9.549e+00       7.290e-01          -0.356          -0.021           0.934       1.325e-02         -0.3444
  81       2.339e+00      -9.547e+00       7.537e-01          -0.211           0.010           0.977       1.664e-02         -0.5483
  82       2.446e+00      -9.546e+00       7.695e-01          -0.090           0.034           0.995       1.929e-02         -0.6156
  83       2.567e+00      -9.546e+00       7.730e-01           0.028           0.053           0.998       2.107e-02         -0.5883
  84       2.696e+00      -9.547e+00       7.621e-01           0.138           0.069           0.988       2.190e-02         -0.4496
  85       2.825e+00      -9.548e+00       7.399e-01           0.203           0.076           0.976       2.152e-02         -0.2611
  86       2.947e+00      -9.550e+00       7.129e-01           0.233           0.078           0.969       1.977e-02         -0.0923
  87       3.054e+00      -9.551e+00       6.875e-01           0.230           0.078           0.970       1.671e-02          0.0411
  88       3.140e+00      -9.553e+00       6.685e-01           0.199           0.077           0.977       1.260e-02          0.1357
  89       3.200e+00      -9.553e+00       6.574e-01           0.149           0.075           0.986       7.795e-03          0.1927
  90       3.231e+00      -9.554e+00       6.532e-01           0.097           0.073           0.993       2.633e-03          0.2178
Strip 4
  91       3.224e+00      -9.356e+00       6.387e-01          -0.022          -0.071          -0.997       3.769e-03          0.2310
  92       3.192e+00      -9.356e+00       6.386e-01           0.012          -0.069          -0.998       1.109e-02          0.2076
  93       3.129e+00      -9.356e+00       6.367e-01           0.042          -0.068          -0.997       1.777e-02          0.1643
  94       3.040e+00      -9.356e+00       6.320e-01           0.061          -0.067          -0.996       2.344e-02          0.1032
  95       2.929e+00      -9.356e+00       6.250e-01           0.066          -0.066          -0.996       2.774e-02          0.0306
  96       2.804e+00      -9.357e+00       6.173e-01           0.057          -0.067          -0.996       3.041e-02         -0.0426
  97       2.670e+00      -9.357e+00       6.113e-01           0.034          -0.070          -0.997       3.129e-02         -0.1079
  98       2.537e+00      -9.357e+00       6.098e-01          -0.012          -0.077          -0.997       3.037e-02         -0.1310
  99       2.411e+00      -9.357e+00       6.131e-01          -0.042          -0.081          -0.996       2.772e-02         -0.1048
 100       2.301e+00      -9.357e+00       6.180e-01          -0.048          -0.082          -0.995       2.344e-02         -0.0894
 101       2.212e+00      -9.357e+00       6.224e-01          -0.052          -0.083          -0.995       1.779e-02         -0.1487
 102       2.149e+00      -9.356e+00       6.273e-01          -0.118          -0.097          -0.988       1.117e-02         -0.4836
 103       2.117e+00      -9.356e+00       6.371e-01          -0.644          -0.196          -0.739       5.026e-03         -0.2538
 104       2.117e+00      -9.354e+00       6.579e-01          -0.846          -0.156           0.509       7.549e-03          0.8763
 105       2.149e+00      -9.353e+00       6.874e-01          -0.544          -0.067           0.836       1.333e-02          0.0812
 106       2.212e+00      -9.351e+00       7.178e-01          -0.356          -0.021           0.934       1.904e-02         -0.3730
 107       2.301e+00      -9.349e+00       7.434e-01          -0.211           0.010           0.977       2.393e-02         -0.6011
 108       2.411e+00      -9.348e+00       7.597e-01          -0.090           0.034           0.995       2.774e-02         -0.6885
 109       2.537e+00      -9.348e+00       7.633e-01           0.028           0.053           0.998       3.030e-02         -0.6674
 110       2.670e+00      -9.349e+00       7.520e-01           0.138           0.069           0.988       3.150e-02         -0.5167
 111       2.804e+00      -9.350e+00       7.290e-01           0.203           0.076           0.976       3.095e-02         -0.3049
 112       2.929e+00      -9.352e+00       7.011e-01           0.233           0.078           0.969       2.843e-02         -0.1118
 113       3.040e+00      -9.353e+00       6.749e-01           0.230           0.078           0.970       2.403e-02          0.0405
 114       3.129e+00      -9.355e+00       6.551e-01           0.199           0.077           0.977       1.812e-02          0.1464
 115       3.192e+00      -9.355e+00       6.437e-01           0.149           0.075           0.986       1.121e-02          0.2095
 116       3.224e+00      -9.356e+00       6.393e-01           0.097           0.073           0.993       3.786e-03          0.2374
Strip 5
 117       3.213e+00      -9.094e+00       6.204e-01          -0.022          -0.071          -0.997       5.012e-03          0.2355
 118       3.180e+00      -9.094e+00       6.203e-01           0.012          -0.069          -0.998       1.474e-02          0.2130
 119       3.115e+00      -9.094e+00       6.183e-01           0.042          -0.068          -0.997       2.364e-02          0.1708
 120       3.022e+00      -9.094e+00       6.134e-01           0.061          -0.067          -0.996       3.117e-02          0.1100
 121       2.906e+00      -9.094e+00       6.061e-01           0.066          -0.066          -0.996       3.689e-02          0.0369
 122       2.775e+00      -9.095e+00       5.981e-01           0.057          -0.067          -0.996       4.044e-02         -0.0373
 123       2.636e+00      -9.095e+00       5.917e-01           0.034          -0.070          -0.997       4.161e-02         -0.1032
 124       2.497e+00      -9.095e+00       5.902e-01          -0.012          -0.077          -0.997       4.039e-02         -0.1257
 125       2.366e+00      -9.095e+00       5.936e-01          -0.042          -0.081          -0.996       3.686e-02         -0.0974
 126       2.250e+00      -9.095e+00       5.988e-01          -0.048          -0.082          -0.995       3.117e-02         -0.0789
 127       2.157e+00      -9.095e+00       6.034e-01          -0.052          -0.083          -0.995       2.366e-02         -0.1331
 128       2.092e+00      -9.094e+00       6.084e-01          -0.118          -0.097          -0.988       1.486e-02         -0.4512
 129       2.058e+00      -9.094e+00       6.187e-01          -0.644          -0.196          -0.739       6.686e-03         -0.2051
 130       2.058e+00      -9.092e+00       6.404e-01          -0.847          -0.156           0.509       1.003e-02          0.8692
 131       2.092e+00      -9.091e+00       6.712e-01          -0.544          -0.067           0.836       1.772e-02          0.0586
 132       2.157e+00      -9.089e+00       7.029e-01          -0.356          -0.021           0.934       2.532e-02         -0.4004
 133       2.250e+00      -9.087e+00       7.297e-01          -0.211           0.010           0.977       3.181e-02         -0.6359
 134       2.366e+00      -9.086e+00       7.467e-01          -0.090           0.034           0.995       3.689e-02         -0.7311
 135       2.497e+00      -9.086e+00       7.504e-01           0.028           0.053           0.998       4.029e-02         -0.7136
 136       2.636e+00      -9.087e+00       7.387e-01           0.138           0.069           0.988       4.189e-02         -0.5581
 137       2.775e+00      -9.088e+00       7.147e-01           0.203           0.076           0.976       4.116e-02         -0.3354
 138       2.906e+00      -9.090e+00       6.855e-01           0.233           0.078           0.969       3.781e-02         -0.1303
 139       3.022e+00      -9.091e+00       6.581e-01           0.230           0.078           0.970       3.196e-02          0.0320
 140       3.115e+00      -9.093e+00       6.375e-01           0.199           0.077           0.977       2.409e-02          0.1446
 141       3.180e+00      -9.093e+00       6.256e-01           0.149           0.075           0.986       1.491e-02          0.2120
 142       3.213e+00      -9.094e+00       6.210e-01           0.097           0.073           0.993       5.034e-03          0.2421
Strip 6
 143       3.201e+00      -8.770e+00       5.977e-01          -0.022          -0.071          -0.997       6.370e-03          0.2365
 144       3.166e+00      -8.770e+00       5.976e-01           0.012          -0.069          -0.998       1.874e-02          0.2148
 145       3.097e+00      -8.770e+00       5.955e-01           0.042          -0.068          -0.997       3.004e-02          0.1735
 146       2.999e+00      -8.770e+00       5.903e-01           0.061          -0.067          -0.996       3.962e-02          0.1133
 147       2.878e+00      -8.770e+00       5.826e-01           0.066          -0.066          -0.996       4.689e-02          0.0407
 148       2.740e+00      -8.771e+00       5.742e-01           0.057          -0.067          -0.996       5.139e-02         -0.0329
 149       2.593e+00      -8.771e+00       5.676e-01           0.034          -0.070          -0.997       5.289e-02         -0.0981
 150       2.447e+00      -8.771e+00       5.659e-01          -0.012          -0.077          -0.997       5.133e-02         -0.1195
 151       2.309e+00      -8.771e+00       5.695e-01          -0.042          -0.081          -0.996       4.685e-02         -0.0900
 152       2.188e+00      -8.771e+00       5.749e-01          -0.048          -0.082          -0.995       3.961e-02         -0.0696
 153       2.090e+00      -8.770e+00       5.798e-01          -0.052          -0.083          -0.995       3.007e-02         -0.1202
 154       2.021e+00      -8.770e+00       5.851e-01          -0.118          -0.097          -0.988       1.889e-02         -0.4245
 155       1.986e+00      -8.770e+00       5.959e-01          -0.644          -0.196          -0.740       8.502e-03         -0.1641
 156       1.986e+00      -8.768e+00       6.188e-01          -0.847          -0.156           0.508       1.275e-02          0.8602
 157       2.021e+00      -8.767e+00       6.512e-01          -0.545          -0.067           0.836       2.251e-02          0.0376
 158       2.090e+00      -8.765e+00       6.845e-01          -0.356          -0.021           0.934       3.217e-02         -0.4222
 159       2.188e+00      -8.763e+00       7.127e-01          -0.211           0.010           0.977       4.042e-02         -0.6594
 160       2.309e+00      -8.763e+00       7.306e-01          -0.090           0.034           0.995       4.688e-02         -0.7566
 161       2.447e+00      -8.762e+00       7.345e-01           0.028           0.053           0.998       5.121e-02         -0.7398
 162       2.593e+00      -8.763e+00       7.222e-01           0.138           0.069           0.988       5.325e-02         -0.5817
 163       2.740e+00      -8.764e+00       6.969e-01           0.203           0.076           0.976       5.232e-02         -0.3537
 164       2.878e+00      -8.766e+00       6.663e-01           0.233           0.078           0.969       4.807e-02         -0.1426
 165       2.999e+00      -8.767e+00       6.374e-01           0.230           0.078           0.970       4.062e-02          0.0248
 166       3.097e+00      -8.769e+00       6.157e-01           0.199           0.077           0.977       3.062e-02          0.1410
 167       3.166e+00      -8.769e+00       6.032e-01           0.149           0.075           0.986       1.895e-02          0.2110
 168       3.201e+00      -8.769e+00       5.984e-01           0.097           0.073           0.993       6.399e-03          0.2424
Strip 7
 169       3.186e+00      -8.386e+00       5.708e-01          -0.022          -0.071          -0.997       7.858e-03          0.2368
 170       3.148e+00      -8.386e+00       5.707e-01           0.012          -0.069          -0.998       2.311e-02          0.2154
 171       3.076e+00      -8.386e+00       5.685e-01           0.042          -0.068          -0.997       3.706e-02          0.1749
 172       2.972e+00      -8.386e+00       5.630e-01           0.061          -0.067          -0.996       4.888e-02          0.1152
 173       2.844e+00      -8.386e+00       5.549e-01           0.066          -0.066          -0.996       5.784e-02          0.0432
 174       2.698e+00      -8.387e+00       5.460e-01           0.057          -0.067          -0.996       6.340e-02         -0.0297
 175       2.543e+00      -8.387e+00       5.389e-01           0.034          -0.070          -0.997       6.524e-02         -0.0940
 176       2.388e+00      -8.387e+00       5.371e-01          -0.012          -0.077          -0.997       6.333e-02         -0.1145
 177       2.242e+00      -8.387e+00       5.410e-01          -0.042          -0.081          -0.996       5.780e-02         -0.0842
 178       2.113e+00      -8.387e+00       5.467e-01          -0.048          -0.082          -0.995       4.887e-02         -0.0627
 179       2.010e+00      -8.386e+00       5.518e-01          -0.052          -0.083          -0.995       3.710e-02         -0.1107
 180       1.937e+00      -8.386e+00       5.575e-01          -0.118          -0.097          -0.988       2.330e-02         -0.4051
 181       1.900e+00      -8.386e+00       5.689e-01          -0.643          -0.196          -0.740       1.049e-02         -0.1346
 182       1.900e+00      -8.384e+00       5.932e-01          -0.847          -0.156           0.507       1.572e-02          0.8528
 183       1.937e+00      -8.383e+00       6.275e-01          -0.545          -0.068           0.836       2.776e-02          0.0219
 184       2.010e+00      -8.381e+00       6.628e-01          -0.356          -0.021           0.934       3.967e-02         -0.4374
 185       2.113e+00      -8.380e+00       6.926e-01          -0.211           0.010           0.977       4.986e-02         -0.6748
 186       2.242e+00      -8.379e+00       7.116e-01          -0.090           0.034           0.995       5.783e-02         -0.7721
 187       2.388e+00      -8.379e+00       7.157e-01           0.028           0.053           0.998       6.318e-02         -0.7549
 188       2.543e+00      -8.379e+00       7.027e-01           0.138           0.069           0.988       6.570e-02         -0.5950
 189       2.698e+00      -8.381e+00       6.759e-01           0.203           0.076           0.976       6.456e-02         -0.3640
 190       2.844e+00      -8.382e+00       6.434e-01           0.233           0.078           0.969       5.930e-02         -0.1499
 191       2.972e+00      -8.384e+00       6.129e-01           0.230           0.078           0.970       5.011e-02          0.0201
 192       3.076e+00      -8.385e+00       5.899e-01           0.199           0.077           0.977       3.778e-02          0.1383
 193       3.148e+00      -8.385e+00       5.767e-01           0.149           0.075           0.986       2.337e-02          0.2097
 194       3.186e+00      -8.386e+00       5.715e-01           0.097           0.073           0.993       7.894e-03          0.2419
Strip 8
 195       3.169e+00      -7.944e+00       5.399e-01          -0.022          -0.071          -0.997       9.487e-03          0.2368
 196       3.129e+00      -7.944e+00       5.398e-01           0.012          -0.069          -0.998       2.790e-02          0.2158
 197       3.052e+00      -7.944e+00       5.374e-01           0.042          -0.068          -0.997       4.474e-02          0.1757
 198       2.942e+00      -7.945e+00       5.316e-01           0.061          -0.067          -0.996       5.901e-02          0.1165
 199       2.805e+00      -7.945e+00       5.230e-01           0.066          -0.066          -0.996       6.983e-02          0.0450
 200       2.650e+00      -7.945e+00       5.135e-01           0.057          -0.067          -0.996       7.654e-02         -0.0274
 201       2.485e+00      -7.946e+00       5.060e-01           0.034          -0.070          -0.997       7.876e-02         -0.0912
 202       2.320e+00      -7.946e+00       5.041e-01          -0.012          -0.077          -0.997       7.645e-02         -0.1112
 203       2.165e+00      -7.946e+00       5.082e-01          -0.042          -0.081          -0.996       6.978e-02         -0.0803
 204       2.028e+00      -7.945e+00       5.143e-01          -0.048          -0.082          -0.995       5.901e-02         -0.0582
 205       1.918e+00      -7.945e+00       5.197e-01          -0.052          -0.083          -0.995       4.479e-02         -0.1047
 206       1.841e+00      -7.945e+00       5.257e-01          -0.118          -0.097          -0.988       2.814e-02         -0.3929
 207       1.801e+00      -7.944e+00       5.379e-01          -0.643          -0.196          -0.740       1.268e-02         -0.1163
 208       1.801e+00      -7.943e+00       5.637e-01          -0.848          -0.156           0.507       1.897e-02          0.8479
 209       1.841e+00      -7.942e+00       6.002e-01          -0.545          -0.068           0.836       3.350e-02          0.0120
 210       1.918e+00      -7.940e+00       6.378e-01          -0.356          -0.021           0.934       4.787e-02         -0.4470
 211       2.028e+00      -7.939e+00       6.695e-01          -0.212           0.010           0.977       6.018e-02         -0.6840
 212       2.165e+00      -7.938e+00       6.897e-01          -0.090           0.034           0.995       6.981e-02         -0.7812
 213       2.320e+00      -7.938e+00       6.941e-01           0.028           0.053           0.998       7.627e-02         -0.7634
 214       2.485e+00      -7.938e+00       6.802e-01           0.138           0.069           0.988       7.932e-02         -0.6023
 215       2.650e+00      -7.940e+00       6.517e-01           0.203           0.076           0.976       7.794e-02         -0.3697
 216       2.805e+00      -7.941e+00       6.172e-01           0.233           0.078           0.969       7.160e-02         -0.1540
 217       2.942e+00      -7.942e+00       5.847e-01           0.230           0.078           0.970       6.051e-02          0.0174
 218       3.052e+00      -7.943e+00       5.603e-01           0.199           0.077           0.977       4.561e-02          0.1367
 219       3.129e+00      -7.944e+00       5.461e-01           0.149           0.075           0.986       2.822e-02          0.2088
 220       3.169e+00      -7.944e+00       5.407e-01           0.097           0.073           0.993       9.530e-03          0.2415
Strip 9
 221       3.149e+00      -7.449e+00       5.053e-01          -0.022          -0.071          -0.997       1.126e-02          0.2368
 222       3.107e+00      -7.449e+00       5.051e-01           0.012          -0.069          -0.998       3.312e-02          0.2160
 223       3.025e+00      -7.449e+00       5.026e-01           0.042          -0.068          -0.997       5.309e-02          0.1761
 224       2.907e+00      -7.449e+00       4.964e-01           0.061          -0.067          -0.996       7.003e-02          0.1172
 225       2.761e+00      -7.449e+00       4.871e-01           0.066          -0.066          -0.996       8.287e-02          0.0460
 226       2.596e+00      -7.450e+00       4.770e-01           0.057          -0.067          -0.996       9.084e-02         -0.0261
 227       2.420e+00      -7.450e+00       4.690e-01           0.034          -0.070          -0.997       9.347e-02         -0.0895
 228       2.244e+00      -7.450e+00       4.670e-01          -0.012          -0.077          -0.997       9.073e-02         -0.1092
 229       2.078e+00      -7.450e+00       4.714e-01          -0.042          -0.081          -0.996       8.283e-02         -0.0782
 230       1.932e+00      -7.450e+00       4.779e-01          -0.048          -0.082          -0.995       7.003e-02         -0.0558
 231       1.815e+00      -7.450e+00       4.837e-01          -0.052          -0.083          -0.995       5.316e-02         -0.1015
 232       1.732e+00      -7.449e+00       4.901e-01          -0.118          -0.097          -0.988       3.340e-02         -0.3865
 233       1.690e+00      -7.449e+00       5.031e-01          -0.643          -0.196          -0.741       1.505e-02         -0.1072
 234       1.690e+00      -7.448e+00       5.306e-01          -0.848          -0.156           0.506       2.250e-02          0.8457
 235       1.732e+00      -7.446e+00       5.696e-01          -0.545          -0.068           0.835       3.974e-02          0.0072
 236       1.815e+00      -7.445e+00       6.097e-01          -0.357          -0.021           0.934       5.680e-02         -0.4518
 237       1.932e+00      -7.444e+00       6.435e-01          -0.212           0.010           0.977       7.141e-02         -0.6889
 238       2.078e+00      -7.443e+00       6.651e-01          -0.090           0.034           0.995       8.285e-02         -0.7859
 239       2.244e+00      -7.443e+00       6.698e-01           0.028           0.053           0.998       9.052e-02         -0.7679
 240       2.420e+00      -7.443e+00       6.550e-01           0.138           0.069           0.988       9.415e-02         -0.6061
 241       2.596e+00      -7.444e+00       6.246e-01           0.203           0.076           0.976       9.252e-02         -0.3727
 242       2.761e+00      -7.446e+00       5.877e-01           0.233           0.078           0.969       8.499e-02         -0.1561
 243       2.907e+00      -7.447e+00       5.530e-01           0.230           0.078           0.970       7.182e-02          0.0159
 244       3.025e+00      -7.448e+00       5.269e-01           0.199           0.077           0.977       5.414e-02          0.1357
 245       3.107e+00      -7.448e+00       5.119e-01           0.149           0.075           0.986       3.349e-02          0.2083
 246       3.149e+00      -7.449e+00       5.061e-01           0.097           0.073           0.993       1.131e-02          0.2412
Strip 10
 247       3.128e+00      -6.902e+00       4.670e-01          -0.022          -0.071          -0.997       1.317e-02          0.2369
 248       3.083e+00      -6.902e+00       4.669e-01           0.012          -0.069          -0.998       3.874e-02          0.2161
 249       2.995e+00      -6.902e+00       4.642e-01           0.042          -0.068          -0.997       6.211e-02          0.1764
 250       2.869e+00      -6.903e+00       4.575e-01           0.061          -0.067          -0.996       8.192e-02          0.1176
 251       2.713e+00      -6.903e+00       4.476e-01           0.066          -0.066          -0.996       9.695e-02          0.0465
 252       2.536e+00      -6.903e+00       4.368e-01           0.057          -0.067          -0.996       1.063e-01         -0.0255
 253       2.348e+00      -6.904e+00       4.282e-01           0.034          -0.070          -0.997       1.094e-01         -0.0887
 254       2.160e+00      -6.904e+00       4.261e-01          -0.012          -0.077          -0.997       1.062e-01         -0.1084
 255       1.982e+00      -6.903e+00       4.308e-01          -0.042          -0.081          -0.996       9.690e-02         -0.0773
 256       1.827e+00      -6.903e+00       4.377e-01          -0.048          -0.082          -0.995       8.193e-02         -0.0550
 257       1.701e+00      -6.903e+00       4.440e-01          -0.052          -0.083          -0.995       6.219e-02         -0.1006
 258       1.613e+00      -6.903e+00       4.508e-01          -0.118          -0.097          -0.988       3.908e-02         -0.3851
 259       1.567e+00      -6.902e+00       4.647e-01          -0.642          -0.196          -0.741       1.762e-02         -0.1057
 260       1.567e+00      -6.901e+00       4.941e-01          -0.849          -0.156           0.505       2.631e-02          0.8457
 261       1.613e+00      -6.900e+00       5.358e-01          -0.546          -0.068           0.835       4.647e-02          0.0063
 262       1.701e+00      -6.899e+00       5.787e-01          -0.357          -0.021           0.934       6.642e-02         -0.4532
 263       1.827e+00      -6.898e+00       6.149e-01          -0.212           0.010           0.977       8.353e-02         -0.6905
 264       1.982e+00      -6.897e+00       6.380e-01          -0.090           0.034           0.995       9.692e-02         -0.7877
 265       2.160e+00      -6.897e+00       6.430e-01           0.028           0.053           0.998       1.059e-01         -0.7696
 266       2.348e+00      -6.897e+00       6.271e-01           0.138           0.069           0.988       1.102e-01         -0.6077
 267       2.536e+00      -6.898e+00       5.946e-01           0.203           0.076           0.976       1.082e-01         -0.3740
 268       2.713e+00      -6.899e+00       5.552e-01           0.233           0.078           0.969       9.944e-02         -0.1570
 269       2.869e+00      -6.901e+00       5.181e-01           0.230           0.078           0.970       8.402e-02          0.0153
 270       2.995e+00      -6.902e+00       4.902e-01           0.199           0.077           0.977       6.334e-02          0.1353
 271       3.083e+00      -6.902e+00       4.741e-01           0.149           0.075           0.986       3.918e-02          0.2081
 272       3.128e+00      -6.902e+00       4.679e-01           0.097           0.073           0.993       1.323e-02          0.2411
Strip 11
 273       3.105e+00      -6.309e+00       4.255e-01          -0.022          -0.071          -0.997       1.522e-02          0.2369
 274       3.056e+00      -6.309e+00       4.253e-01           0.012          -0.069          -0.998       4.475e-02          0.2162
 275       2.962e+00      -6.309e+00       4.224e-01           0.042          -0.068          -0.997       7.175e-02          0.1765
 276       2.828e+00      -6.309e+00       4.153e-01           0.061          -0.067          -0.996       9.463e-02          0.1177
 277       2.661e+00      -6.309e+00       4.047e-01           0.066          -0.066          -0.996       1.120e-01          0.0466
 278       2.471e+00      -6.310e+00       3.931e-01           0.057          -0.067          -0.996       1.227e-01         -0.0253
 279       2.270e+00      -6.310e+00       3.839e-01           0.034          -0.070          -0.997       1.263e-01         -0.0887
 280       2.068e+00      -6.310e+00       3.816e-01          -0.012          -0.077          -0.997       1.226e-01         -0.1084
 281       1.879e+00      -6.310e+00       3.867e-01          -0.042          -0.081          -0.996       1.119e-01         -0.0775
 282       1.712e+00      -6.310e+00       3.941e-01          -0.048          -0.082          -0.995       9.465e-02         -0.0554
 283       1.577e+00      -6.309e+00       4.008e-01          -0.052          -0.083          -0.995       7.185e-02         -0.1016
 284       1.483e+00      -6.309e+00       4.081e-01          -0.118          -0.097          -0.988       4.514e-02         -0.3874
 285       1.434e+00      -6.309e+00       4.230e-01          -0.642          -0.196          -0.741       2.036e-02         -0.1101
 286       1.434e+00      -6.308e+00       4.545e-01          -0.849          -0.157           0.505       3.038e-02          0.8475
 287       1.483e+00      -6.307e+00       4.991e-01          -0.546          -0.068           0.835       5.365e-02          0.0087
 288       1.577e+00      -6.305e+00       5.451e-01          -0.357          -0.021           0.934       7.670e-02         -0.4517
 289       1.712e+00      -6.304e+00       5.838e-01          -0.212           0.010           0.977       9.646e-02         -0.6897
 290       1.879e+00      -6.304e+00       6.085e-01          -0.090           0.034           0.995       1.119e-01         -0.7873
 291       2.068e+00      -6.304e+00       6.139e-01           0.028           0.053           0.998       1.223e-01         -0.7695
 292       2.270e+00      -6.304e+00       5.969e-01           0.138           0.069           0.988       1.273e-01         -0.6077
 293       2.471e+00      -6.305e+00       5.621e-01           0.203           0.076           0.976       1.251e-01         -0.3740
 294       2.661e+00      -6.306e+00       5.199e-01           0.233           0.078           0.969       1.149e-01         -0.1572
 295       2.828e+00      -6.307e+00       4.802e-01           0.230           0.078           0.970       9.706e-02          0.0152
 296       2.962e+00      -6.308e+00       4.503e-01           0.199           0.077           0.977       7.317e-02          0.1352
 297       3.056e+00      -6.309e+00       4.331e-01           0.149           0.075           0.986       4.526e-02          0.2080
 298       3.105e+00      -6.309e+00       4.264e-01           0.097           0.073           0.993       1.529e-02          0.2411
Strip 12
 299       3.080e+00      -5.672e+00       3.809e-01          -0.022          -0.071          -0.997       1.737e-02          0.2369
 300       3.028e+00      -5.672e+00       3.807e-01           0.012          -0.069          -0.998       5.110e-02          0.2162
 301       2.927e+00      -5.672e+00       3.776e-01           0.042          -0.068          -0.997       8.192e-02          0.1765
 302       2.783e+00      -5.672e+00       3.700e-01           0.061          -0.067          -0.996       1.080e-01          0.1176
 303       2.604e+00      -5.673e+00       3.587e-01           0.066          -0.066          -0.996       1.279e-01          0.0465
 304       2.401e+00      -5.673e+00       3.463e-01           0.057          -0.067          -0.996       1.401e-01         -0.0256
 305       2.186e+00      -5.673e+00       3.364e-01           0.034          -0.070          -0.997       1.442e-01         -0.0891
 306       1.970e+00      -5.673e+00       3.340e-01          -0.012          -0.077          -0.997       1.400e-01         -0.1092
 307       1.767e+00      -5.673e+00       3.393e-01          -0.042          -0.081          -0.996       1.278e-01         -0.0785
 308       1.589e+00      -5.673e+00       3.473e-01          -0.048          -0.082          -0.995       1.081e-01         -0.0569
 309       1.445e+00      -5.673e+00       3.545e-01          -0.052          -0.083          -0.995       8.203e-02         -0.1040
 310       1.344e+00      -5.673e+00       3.623e-01          -0.118          -0.097          -0.988       5.155e-02         -0.3928
 311       1.292e+00      -5.672e+00       3.783e-01          -0.642          -0.196          -0.742       2.326e-02         -0.1194
 312       1.292e+00      -5.671e+00       4.120e-01          -0.849          -0.157           0.504       3.467e-02          0.8508
 313       1.344e+00      -5.670e+00       4.598e-01          -0.546          -0.068           0.835       6.123e-02          0.0138
 314       1.445e+00      -5.669e+00       5.090e-01          -0.357          -0.021           0.934       8.755e-02         -0.4480
 315       1.589e+00      -5.668e+00       5.505e-01          -0.212           0.010           0.977       1.101e-01         -0.6869
 316       1.767e+00      -5.668e+00       5.769e-01          -0.090           0.034           0.995       1.278e-01         -0.7852
 317       1.970e+00      -5.667e+00       5.827e-01           0.028           0.053           0.998       1.397e-01         -0.7680
 318       2.186e+00      -5.668e+00       5.645e-01           0.138           0.069           0.988       1.453e-01         -0.6066
 319       2.401e+00      -5.669e+00       5.272e-01           0.203           0.076           0.976       1.428e-01         -0.3733
 320       2.604e+00      -5.670e+00       4.820e-01           0.233           0.078           0.969       1.312e-01         -0.1567
 321       2.783e+00      -5.671e+00       4.395e-01           0.230           0.078           0.970       1.108e-01          0.0154
 322       2.927e+00      -5.671e+00       4.075e-01           0.199           0.077           0.977       8.354e-02          0.1354
 323       3.028e+00      -5.672e+00       3.890e-01           0.149           0.075           0.986       5.168e-02          0.2081
 324       3.080e+00      -5.672e+00       3.819e-01           0.097           0.073           0.993       1.745e-02          0.2411
Strip 13
 325       3.054e+00      -4.997e+00       3.336e-01          -0.022          -0.071          -0.997       1.962e-02          0.2370
 326       2.998e+00      -4.997e+00       3.334e-01           0.012          -0.069          -0.998       5.770e-02          0.2162
 327       2.890e+00      -4.997e+00       3.301e-01           0.042          -0.068          -0.997       9.251e-02          0.1764
 328       2.736e+00      -4.997e+00       3.220e-01           0.061          -0.067          -0.996       1.220e-01          0.1174
 329       2.545e+00      -4.997e+00       3.098e-01           0.066          -0.066          -0.996       1.444e-01          0.0461
 330       2.328e+00      -4.997e+00       2.966e-01           0.057          -0.067          -0.996       1.583e-01         -0.0262
 331       2.097e+00      -4.998e+00       2.860e-01           0.034          -0.070          -0.997       1.629e-01         -0.0900
 332       1.866e+00      -4.998e+00       2.834e-01          -0.012          -0.077          -0.997       1.581e-01         -0.1104
 333       1.649e+00      -4.998e+00       2.892e-01          -0.042          -0.081          -0.996       1.443e-01         -0.0802
 334       1.458e+00      -4.997e+00       2.977e-01          -0.048          -0.082          -0.995       1.221e-01         -0.0592
 335       1.304e+00      -4.997e+00       3.053e-01          -0.052          -0.083          -0.995       9.265e-02         -0.1075
 336       1.196e+00      -4.997e+00       3.137e-01          -0.118          -0.097          -0.988       5.822e-02         -0.4009
 337       1.140e+00      -4.997e+00       3.308e-01          -0.641          -0.196          -0.742       2.628e-02         -0.1328
 338       1.140e+00      -4.996e+00       3.669e-01          -0.850          -0.157           0.503       3.914e-02          0.8553
 339       1.196e+00      -4.995e+00       4.180e-01          -0.546          -0.068           0.835       6.912e-02          0.0211
 340       1.304e+00      -4.994e+00       4.707e-01          -0.357          -0.021           0.934       9.884e-02         -0.4424
 341       1.458e+00      -4.993e+00       5.151e-01          -0.212           0.010           0.977       1.243e-01         -0.6825
 342       1.649e+00      -4.993e+00       5.434e-01          -0.090           0.034           0.995       1.443e-01         -0.7817
 343       1.866e+00      -4.993e+00       5.496e-01           0.028           0.053           0.998       1.577e-01         -0.7653
 344       2.097e+00      -4.993e+00       5.301e-01           0.138           0.069           0.988       1.641e-01         -0.6046
 345       2.328e+00      -4.994e+00       4.902e-01           0.203           0.076           0.976       1.613e-01         -0.3720
 346       2.545e+00      -4.995e+00       4.418e-01           0.233           0.078           0.969       1.481e-01         -0.1559
 347       2.736e+00      -4.996e+00       3.963e-01           0.230           0.078           0.970       1.252e-01          0.0160
 348       2.890e+00      -4.996e+00       3.621e-01           0.199           0.077           0.977       9.435e-02          0.1357
 349       2.998e+00      -4.997e+00       3.423e-01           0.149           0.075           0.986       5.837e-02          0.2083
 350       3.054e+00      -4.997e+00       3.347e-01           0.097           0.073           0.993       1.971e-02          0.2413
Strip 14
 351       3.026e+00      -4.287e+00       2.840e-01          -0.022          -0.071          -0.997       2.193e-02          0.2370
 352       2.967e+00      -4.287e+00       2.838e-01           0.012          -0.069          -0.998       6.449e-02          0.2162
 353       2.851e+00      -4.287e+00       2.802e-01           0.042          -0.068          -0.997       1.034e-01          0.1763
 354       2.687e+00      -4.287e+00       2.715e-01           0.061          -0.067          -0.996       1.364e-01          0.1171
 355       2.482e+00      -4.288e+00       2.585e-01           0.066          -0.066          -0.996       1.614e-01          0.0455
 356       2.250e+00      -4.288e+00       2.443e-01           0.057          -0.067          -0.996       1.769e-01         -0.0271
 357       2.004e+00      -4.288e+00       2.331e-01           0.034          -0.070          -0.997       1.820e-01         -0.0913
 358       1.757e+00      -4.288e+00       2.303e-01          -0.012          -0.077          -0.997       1.767e-01         -0.1121
 359       1.525e+00      -4.288e+00       2.364e-01          -0.042          -0.081          -0.996       1.613e-01         -0.0824
 360       1.321e+00      -4.288e+00       2.455e-01          -0.048          -0.082          -0.995       1.364e-01         -0.0621
 361       1.156e+00      -4.288e+00       2.537e-01          -0.052          -0.083          -0.995       1.035e-01         -0.1122
 362       1.041e+00      -4.287e+00       2.627e-01          -0.118          -0.097          -0.988       6.507e-02         -0.4113
 363       9.815e-01      -4.287e+00       2.810e-01          -0.641          -0.196          -0.742       2.938e-02         -0.1501
 364       9.815e-01      -4.287e+00       3.195e-01          -0.850          -0.157           0.503       4.373e-02          0.8607
 365       1.041e+00      -4.286e+00       3.742e-01          -0.547          -0.068           0.835       7.722e-02          0.0304
 366       1.156e+00      -4.285e+00       4.305e-01          -0.357          -0.021           0.934       1.104e-01         -0.4349
 367       1.321e+00      -4.284e+00       4.779e-01          -0.212           0.010           0.977       1.389e-01         -0.6766
 368       1.525e+00      -4.284e+00       5.082e-01          -0.090           0.034           0.995       1.613e-01         -0.7770
 369       1.757e+00      -4.284e+00       5.148e-01           0.028           0.053           0.998       1.763e-01         -0.7615
 370       2.004e+00      -4.284e+00       4.940e-01           0.138           0.069           0.988       1.834e-01         -0.6019
 371       2.250e+00      -4.285e+00       4.513e-01           0.203           0.076           0.976       1.802e-01         -0.3702
 372       2.482e+00      -4.285e+00       3.996e-01           0.233           0.078           0.969       1.656e-01         -0.1547
 373       2.687e+00      -4.286e+00       3.510e-01           0.230           0.078           0.970       1.399e-01          0.0167
 374       2.851e+00      -4.287e+00       3.144e-01           0.199           0.077           0.977       1.054e-01          0.1362
 375       2.967e+00      -4.287e+00       2.933e-01           0.149           0.075           0.986       6.523e-02          0.2086
 376       3.026e+00      -4.287e+00       2.851e-01           0.097           0.073           0.993       2.203e-02          0.2414
Strip 15
 377       2.997e+00      -3.548e+00       2.323e-01          -0.022          -0.071          -0.997       2.426e-02          0.2370
 378       2.934e+00      -3.548e+00       2.320e-01           0.012          -0.069          -0.998       7.134e-02          0.2161
 379       2.811e+00      -3.548e+00       2.282e-01           0.042          -0.068          -0.997       1.144e-01          0.1760
 380       2.635e+00      -3.548e+00       2.190e-01           0.061          -0.067          -0.996       1.508e-01          0.1166
 381       2.417e+00      -3.549e+00       2.051e-01           0.066          -0.066          -0.996       1.785e-01          0.0448
 382       2.170e+00      -3.549e+00       1.900e-01           0.057          -0.067          -0.996       1.957e-01         -0.0282
 383       1.907e+00      -3.549e+00       1.780e-01           0.034          -0.070          -0.997       2.014e-01         -0.0928
 384       1.644e+00      -3.549e+00       1.750e-01          -0.012          -0.077          -0.997       1.955e-01         -0.1141
 385       1.396e+00      -3.549e+00       1.815e-01          -0.042          -0.081          -0.996       1.785e-01         -0.0850
 386       1.178e+00      -3.549e+00       1.912e-01          -0.048          -0.082          -0.995       1.509e-01         -0.0657
 387       1.002e+00      -3.549e+00       2.000e-01          -0.052          -0.083          -0.995       1.146e-01         -0.1178
 388       8.794e-01      -3.549e+00       2.096e-01          -0.118          -0.097          -0.988       7.200e-02         -0.4240
 389       8.160e-01      -3.548e+00       2.290e-01          -0.641          -0.196          -0.742       3.252e-02         -0.1713
 390       8.160e-01      -3.548e+00       2.702e-01          -0.850          -0.157           0.502       4.836e-02          0.8670
 391       8.794e-01      -3.547e+00       3.285e-01          -0.547          -0.068           0.834       8.540e-02          0.0418
 392       1.002e+00      -3.546e+00       3.886e-01          -0.357          -0.021           0.934       1.221e-01         -0.4258
 393       1.178e+00      -3.546e+00       4.392e-01          -0.212           0.010           0.977       1.537e-01         -0.6692
 394       1.396e+00      -3.546e+00       4.715e-01          -0.090           0.034           0.995       1.784e-01         -0.7710
 395       1.644e+00      -3.545e+00       4.786e-01           0.028           0.053           0.998       1.950e-01         -0.7568
 396       1.907e+00      -3.546e+00       4.564e-01           0.138           0.069           0.988       2.029e-01         -0.5984
 397       2.170e+00      -3.546e+00       4.109e-01           0.203           0.076           0.976       1.994e-01         -0.3679
 398       2.417e+00      -3.547e+00       3.557e-01           0.233           0.078           0.969       1.832e-01         -0.1532
 399       2.635e+00      -3.547e+00       3.038e-01           0.230           0.078           0.970       1.548e-01          0.0176
 400       2.811e+00      -3.548e+00       2.647e-01           0.199           0.077           0.977       1.167e-01          0.1367
 401       2.934e+00      -3.548e+00       2.422e-01           0.149           0.075           0.986       7.217e-02          0.2089
 402       2.997e+00      -3.548e+00       2.335e-01           0.097           0.073           0.993       2.437e-02          0.2416
Strip 16
 403       2.967e+00      -2.785e+00       1.788e-01          -0.022          -0.071          -0.997       2.657e-02          0.2370
 404       2.900e+00      -2.785e+00       1.786e-01           0.012          -0.069          -0.998       7.815e-02          0.2158
 405       2.769e+00      -2.785e+00       1.746e-01           0.042          -0.068          -0.997       1.253e-01          0.1756
 406       2.582e+00      -2.785e+00       1.647e-01           0.061          -0.067          -0.996       1.652e-01          0.1160
 407       2.350e+00      -2.786e+00       1.499e-01           0.066          -0.066          -0.996       1.955e-01          0.0439
 408       2.086e+00      -2.786e+00       1.338e-01           0.057          -0.067          -0.996       2.143e-01         -0.0294
 409       1.806e+00      -2.786e+00       1.210e-01           0.034          -0.070          -0.997       2.206e-01         -0.0945
 410       1.526e+00      -2.786e+00       1.178e-01          -0.012          -0.077          -0.997       2.141e-01         -0.1163
 411       1.263e+00      -2.786e+00       1.248e-01          -0.042          -0.081          -0.996       1.955e-01         -0.0879
 412       1.031e+00      -2.786e+00       1.352e-01          -0.048          -0.082          -0.995       1.653e-01         -0.0697
 413       8.436e-01      -2.786e+00       1.445e-01          -0.052          -0.083          -0.995       1.255e-01         -0.1241
 414       7.125e-01      -2.785e+00       1.547e-01          -0.118          -0.097          -0.988       7.887e-02         -0.4389
 415       6.450e-01      -2.785e+00       1.754e-01          -0.641          -0.196          -0.742       3.563e-02         -0.1966
 416       6.450e-01      -2.785e+00       2.193e-01          -0.851          -0.157           0.502       5.296e-02          0.8742
 417       7.125e-01      -2.784e+00       2.814e-01          -0.547          -0.068           0.834       9.352e-02          0.0556
 418       8.436e-01      -2.784e+00       3.453e-01          -0.357          -0.022           0.934       1.338e-01         -0.4143
 419       1.031e+00      -2.783e+00       3.993e-01          -0.212           0.010           0.977       1.683e-01         -0.6598
 420       1.263e+00      -2.783e+00       4.336e-01          -0.090           0.034           0.995       1.954e-01         -0.7634
 421       1.526e+00      -2.783e+00       4.412e-01           0.028           0.053           0.998       2.137e-01         -0.7509
 422       1.806e+00      -2.783e+00       4.175e-01           0.138           0.069           0.988       2.223e-01         -0.5942
 423       2.086e+00      -2.784e+00       3.690e-01           0.203           0.076           0.976       2.185e-01         -0.3651
 424       2.350e+00      -2.784e+00       3.103e-01           0.233           0.078           0.969       2.007e-01         -0.1515
 425       2.582e+00      -2.785e+00       2.550e-01           0.230           0.078           0.970       1.696e-01          0.0186
 426       2.769e+00      -2.785e+00       2.134e-01           0.199           0.077           0.977       1.278e-01          0.1372
 427       2.900e+00      -2.785e+00       1.894e-01           0.149           0.075           0.986       7.905e-02          0.2091
 428       2.967e+00      -2.785e+00       1.801e-01           0.097           0.073           0.993       2.670e-02          0.2417
Strip 17
 429       2.937e+00      -2.003e+00       1.241e-01          -0.022          -0.071          -0.997       2.883e-02          0.2367
 430       2.865e+00      -2.003e+00       1.238e-01           0.012          -0.069          -0.998       8.478e-02          0.2154
 431       2.726e+00      -2.003e+00       1.196e-01           0.042          -0.068          -0.997       1.359e-01          0.1750
 432       2.527e+00      -2.003e+00       1.091e-01           0.061          -0.067          -0.996       1.792e-01          0.1152
 433       2.281e+00      -2.003e+00       9.340e-02           0.066          -0.066          -0.996       2.121e-01          0.0429
 434       2.001e+00      -2.003e+00       7.624e-02           0.057          -0.067          -0.996       2.325e-01         -0.0307
 435       1.703e+00      -2.004e+00       6.268e-02           0.034          -0.070          -0.997       2.393e-01         -0.0962
 436       1.406e+00      -2.004e+00       5.928e-02          -0.012          -0.077          -0.997       2.323e-01         -0.1186
 437       1.126e+00      -2.004e+00       6.669e-02          -0.042          -0.081          -0.996       2.121e-01         -0.0909
 438       8.793e-01      -2.003e+00       7.770e-02          -0.048          -0.082          -0.995       1.793e-01         -0.0739
 439       6.807e-01      -2.003e+00       8.756e-02          -0.052          -0.083          -0.995       1.361e-01         -0.1311
 440       5.415e-01      -2.003e+00       9.842e-02          -0.118          -0.097          -0.988       8.557e-02         -0.4559
 441       4.698e-01      -2.003e+00       1.205e-01          -0.640          -0.196          -0.743       3.867e-02         -0.2268
 442       4.698e-01      -2.003e+00       1.670e-01          -0.851          -0.157           0.502       5.744e-02          0.8825
 443       5.415e-01      -2.003e+00       2.331e-01          -0.547          -0.068           0.834       1.014e-01          0.0728
 444       6.807e-01      -2.002e+00       3.010e-01          -0.357          -0.022           0.934       1.451e-01         -0.3996
 445       8.793e-01      -2.002e+00       3.583e-01          -0.212           0.010           0.977       1.826e-01         -0.6477
 446       1.126e+00      -2.002e+00       3.948e-01          -0.090           0.034           0.995       2.120e-01         -0.7537
 447       1.406e+00      -2.002e+00       4.028e-01           0.028           0.053           0.998       2.318e-01         -0.7436
 448       1.703e+00      -2.002e+00       3.777e-01           0.138           0.069           0.988       2.412e-01         -0.5893
 449       2.001e+00      -2.002e+00       3.262e-01           0.203           0.076           0.976       2.370e-01         -0.3621
 450       2.281e+00      -2.002e+00       2.637e-01           0.232           0.078           0.969       2.177e-01         -0.1499
 451       2.527e+00      -2.003e+00       2.050e-01           0.230           0.078           0.970       1.839e-01          0.0194
 452       2.726e+00      -2.003e+00       1.608e-01           0.199           0.077           0.977       1.386e-01          0.1376
 453       2.865e+00      -2.003e+00       1.353e-01           0.149           0.075           0.986       8.576e-02          0.2092
 454       2.937e+00      -2.003e+00       1.255e-01           0.097           0.073           0.993       2.896e-02          0.2416
Strip 18
 455       2.906e+00      -1.207e+00       6.840e-02          -0.022          -0.071          -0.997       3.097e-02          0.2359
 456       2.830e+00      -1.207e+00       6.813e-02           0.012          -0.069          -0.998       9.109e-02          0.2145
 457       2.682e+00      -1.207e+00       6.359e-02           0.042          -0.068          -0.997       1.460e-01          0.1737
 458       2.472e+00      -1.207e+00       5.247e-02           0.061          -0.067          -0.996       1.926e-01          0.1137
 459       2.211e+00      -1.208e+00       3.586e-02           0.066          -0.066          -0.996       2.279e-01          0.0413
 460       1.914e+00      -1.208e+00       1.767e-02           0.057          -0.067          -0.996       2.498e-01         -0.0323
 461       1.599e+00      -1.208e+00       3.303e-03           0.034          -0.070          -0.997       2.571e-01         -0.0977
 462       1.284e+00      -1.208e+00      -3.037e-04          -0.012          -0.077          -0.997       2.496e-01         -0.1201
 463       9.868e-01      -1.208e+00       7.551e-03          -0.042          -0.081          -0.996       2.279e-01         -0.0928
 464       7.255e-01      -1.208e+00       1.922e-02          -0.048          -0.082          -0.995       1.927e-01         -0.0769
 465       5.150e-01      -1.208e+00       2.968e-02          -0.052          -0.083          -0.995       1.463e-01         -0.1374
 466       3.675e-01      -1.207e+00       4.118e-02          -0.118          -0.097          -0.988       9.194e-02         -0.4743
 467       2.915e-01      -1.207e+00       6.455e-02          -0.640          -0.196          -0.743       4.155e-02         -0.2634
 468       2.915e-01      -1.207e+00       1.139e-01          -0.851          -0.157           0.501       6.170e-02          0.8929
 469       3.675e-01      -1.207e+00       1.839e-01          -0.547          -0.068           0.834       1.089e-01          0.0965
 470       5.150e-01      -1.207e+00       2.559e-01          -0.358          -0.022           0.934       1.559e-01         -0.3781
 471       7.255e-01      -1.207e+00       3.166e-01          -0.212           0.010           0.977       1.962e-01         -0.6297
 472       9.868e-01      -1.206e+00       3.553e-01          -0.090           0.034           0.995       2.278e-01         -0.7401
 473       1.284e+00      -1.206e+00       3.638e-01           0.028           0.053           0.998       2.490e-01         -0.7346
 474       1.599e+00      -1.207e+00       3.372e-01           0.138           0.069           0.988       2.591e-01         -0.5846
 475       1.914e+00      -1.207e+00       2.826e-01           0.203           0.076           0.976       2.547e-01         -0.3603
 476       2.211e+00      -1.207e+00       2.164e-01           0.232           0.078           0.969       2.339e-01         -0.1495
 477       2.472e+00      -1.207e+00       1.541e-01           0.230           0.078           0.970       1.976e-01          0.0193
 478       2.682e+00      -1.207e+00       1.073e-01           0.199           0.077           0.977       1.490e-01          0.1372
 479       2.830e+00      -1.207e+00       8.028e-02           0.149           0.075           0.986       9.214e-02          0.2087
 480       2.906e+00      -1.207e+00       6.985e-02           0.097           0.073           0.993       3.112e-02          0.2410
Strip 19
 481       2.875e+00      -4.034e-01       1.212e-02          -0.022          -0.071          -0.997       3.296e-02          0.2340
 482       2.794e+00      -4.034e-01       1.184e-02           0.012          -0.069          -0.998       9.693e-02          0.2121
 483       2.638e+00      -4.034e-01       7.039e-03           0.042          -0.068          -0.997       1.554e-01          0.1706
 484       2.416e+00      -4.034e-01      -4.719e-03           0.061          -0.067          -0.996       2.049e-01          0.1096
 485       2.140e+00      -4.034e-01      -2.228e-02           0.066          -0.066          -0.996       2.425e-01          0.0364
 486       1.826e+00      -4.034e-01      -4.150e-02           0.057          -0.067          -0.996       2.658e-01         -0.0368
 487       1.493e+00      -4.035e-01      -5.669e-02           0.034          -0.070          -0.997       2.736e-01         -0.1002
 488       1.160e+00      -4.035e-01      -6.050e-02          -0.012          -0.077          -0.997       2.656e-01         -0.1194
 489       8.462e-01      -4.035e-01      -5.220e-02          -0.042          -0.081          -0.996       2.425e-01         -0.0888
 490       5.701e-01      -4.034e-01      -3.986e-02          -0.048          -0.082          -0.995       2.051e-01         -0.0706
 491       3.476e-01      -4.034e-01      -2.881e-02          -0.052          -0.083          -0.995       1.557e-01         -0.1314
 492       1.916e-01      -4.034e-01      -1.665e-02          -0.118          -0.097          -0.988       9.785e-02         -0.4785
 493       1.113e-01      -4.034e-01       8.052e-03          -0.640          -0.196          -0.743       4.423e-02         -0.3014
 494       1.113e-01      -4.033e-01       6.023e-02          -0.851          -0.157           0.501       6.564e-02          0.9073
 495       1.916e-01      -4.033e-01       1.342e-01          -0.547          -0.068           0.834       1.159e-01          0.1420
 496       3.476e-01      -4.032e-01       2.103e-01          -0.358          -0.022           0.934       1.658e-01         -0.3292
 497       5.701e-01      -4.031e-01       2.745e-01          -0.212           0.010           0.977       2.087e-01         -0.5882
 498       8.462e-01      -4.031e-01       3.154e-01          -0.090           0.034           0.995       2.424e-01         -0.7141
 499       1.160e+00      -4.031e-01       3.244e-01           0.028           0.053           0.998       2.650e-01         -0.7273
 500       1.493e+00      -4.031e-01       2.963e-01           0.138           0.069           0.988       2.758e-01         -0.5878
 501       1.826e+00      -4.031e-01       2.385e-01           0.203           0.076           0.976       2.710e-01         -0.3669
 502       2.140e+00      -4.032e-01       1.686e-01           0.232           0.078           0.969       2.489e-01         -0.1550
 503       2.416e+00      -4.033e-01       1.028e-01           0.230           0.078           0.970       2.103e-01          0.0158
 504       2.638e+00      -4.033e-01       5.328e-02           0.199           0.077           0.977       1.585e-01          0.1350
 505       2.794e+00      -4.034e-01       2.468e-02           0.149           0.075           0.986       9.806e-02          0.2070
 506       2.875e+00      -4.034e-01       1.365e-02           0.097           0.073           0.993       3.311e-02          0.2395
Strip 20
 507       2.875e+00       4.034e-01       1.212e-02          -0.022           0.071          -0.997       3.296e-02          0.2340
 508       2.794e+00       4.034e-01       1.184e-02           0.012           0.069          -0.998       9.693e-02          0.2121
 509       2.638e+00       4.034e-01       7.039e-03           0.042           0.068          -0.997       1.554e-01          0.1706
 510       2.416e+00       4.034e-01      -4.719e-03           0.061           0.067          -0.996       2.049e-01          0.1096
 511       2.140e+00       4.034e-01      -2.228e-02           0.066           0.066          -0.996       2.425e-01          0.0364
 512       1.826e+00       4.034e-01      -4.150e-02           0.057           0.067          -0.996       2.658e-01         -0.0368
 513       1.493e+00       4.035e-01      -5.669e-02           0.034           0.070          -0.997       2.736e-01         -0.1002
 514       1.160e+00       4.035e-01      -6.050e-02          -0.012           0.077          -0.997       2.656e-01         -0.1194
 515       8.462e-01       4.035e-01      -5.220e-02          -0.042           0.081          -0.996       2.425e-01         -0.0888
 516       5.701e-01       4.034e-01      -3.986e-02          -0.048           0.082          -0.995       2.051e-01         -0.0706
 517       3.476e-01       4.034e-01      -2.881e-02          -0.052           0.083          -0.995       1.557e-01         -0.1314
 518       1.916e-01       4.034e-01      -1.665e-02          -0.118           0.097          -0.988       9.785e-02         -0.4785
 519       1.113e-01       4.034e-01       8.052e-03          -0.640           0.196          -0.743       4.423e-02         -0.3014
 520       1.113e-01       4.033e-01       6.023e-02          -0.851           0.157           0.501       6.564e-02          0.9073
 521       1.916e-01       4.033e-01       1.342e-01          -0.547           0.068           0.834       1.159e-01          0.1420
 522       3.476e-01       4.032e-01       2.103e-01          -0.358           0.022           0.934       1.658e-01         -0.3292
 523       5.701e-01       4.031e-01       2.745e-01          -0.212          -0.010           0.977       2.087e-01         -0.5882
 524       8.462e-01       4.031e-01       3.154e-01          -0.090          -0.034           0.995       2.424e-01         -0.7141
 525       1.160e+00       4.031e-01       3.244e-01           0.028          -0.053           0.998       2.650e-01         -0.7273
 526       1.493e+00       4.031e-01       2.963e-01           0.138          -0.069           0.988       2.758e-01         -0.5878
 527       1.826e+00       4.031e-01       2.385e-01           0.203          -0.076           0.976       2.710e-01         -0.3669
 528       2.140e+00       4.032e-01       1.686e-01           0.232          -0.078           0.969       2.489e-01         -0.1550
 529       2.416e+00       4.033e-01       1.028e-01           0.230          -0.078           0.970       2.103e-01          0.0158
 530       2.638e+00       4.033e-01       5.328e-02           0.199          -0.077           0.977       1.585e-01          0.1350
 531       2.794e+00       4.034e-01       2.468e-02           0.149          -0.075           0.986       9.806e-02          0.2070
 532       2.875e+00       4.034e-01       1.365e-02           0.097          -0.073           0.993       3.311e-02          0.2395
Strip 21
 533       2.906e+00       1.207e+00       6.840e-02          -0.022           0.071          -0.997       3.097e-02          0.2359
 534       2.830e+00       1.207e+00       6.813e-02           0.012           0.069          -0.998       9.109e-02          0.2145
 535       2.682e+00       1.207e+00       6.359e-02           0.042           0.068          -0.997       1.460e-01          0.1737
 536       2.472e+00       1.207e+00       5.247e-02           0.061           0.067          -0.996       1.926e-01          0.1137
 537       2.211e+00       1.208e+00       3.586e-02           0.066           0.066          -0.996       2.279e-01          0.0413
 538       1.914e+00       1.208e+00       1.767e-02           0.057           0.067          -0.996       2.498e-01         -0.0323
 539       1.599e+00       1.208e+00       3.303e-03           0.034           0.070          -0.997       2.571e-01         -0.0977
 540       1.284e+00       1.208e+00      -3.037e-04          -0.012           0.077          -0.997       2.496e-01         -0.1201
 541       9.868e-01       1.208e+00       7.551e-03          -0.042           0.081          -0.996       2.279e-01         -0.0928
 542       7.255e-01       1.208e+00       1.922e-02          -0.048           0.082          -0.995       1.927e-01         -0.0769
 543       5.150e-01       1.208e+00       2.968e-02          -0.052           0.083          -0.995       1.463e-01         -0.1374
 544       3.675e-01       1.207e+00       4.118e-02          -0.118           0.097          -0.988       9.194e-02         -0.4743
 545       2.915e-01       1.207e+00       6.455e-02          -0.640           0.196          -0.743       4.155e-02         -0.2634
 546       2.915e-01       1.207e+00       1.139e-01          -0.851           0.157           0.501       6.170e-02          0.8929
 547       3.675e-01       1.207e+00       1.839e-01          -0.547           0.068           0.834       1.089e-01          0.0965
 548       5.150e-01       1.207e+00       2.559e-01          -0.358           0.022           0.934       1.559e-01         -0.3781
 549       7.255e-01       1.207e+00       3.166e-01          -0.212          -0.010           0.977       1.962e-01         -0.6297
 550       9.868e-01       1.206e+00       3.553e-01          -0.090          -0.034           0.995       2.278e-01         -0.7401
 551       1.284e+00       1.206e+00       3.638e-01           0.028          -0.053           0.998       2.490e-01         -0.7346
 552       1.599e+00       1.207e+00       3.372e-01           0.138          -0.069           0.988       2.591e-01         -0.5846
 553       1.914e+00       1.207e+00       2.826e-01           0.203          -0.076           0.976       2.547e-01         -0.3603
 554       2.211e+00       1.207e+00       2.164e-01           0.232          -0.078           0.969       2.339e-01         -0.1495
 555       2.472e+00       1.207e+00       1.541e-01           0.230          -0.078           0.970       1.976e-01          0.0193
 556       2.682e+00       1.207e+00       1.073e-01           0.199          -0.077           0.977       1.490e-01          0.1372
 557       2.830e+00       1.207e+00       8.028e-02           0.149          -0.075           0.986       9.214e-02          0.2087
 558       2.906e+00       1.207e+00       6.985e-02           0.097          -0.073           0.993       3.112e-02          0.2410
Strip 22
 559       2.937e+00       2.003e+00       1.241e-01          -0.022           0.071          -0.997       2.883e-02          0.2367
 560       2.865e+00       2.003e+00       1.238e-01           0.012           0.069          -0.998       8.478e-02          0.2154
 561       2.726e+00       2.003e+00       1.196e-01           0.042           0.068          -0.997       1.359e-01          0.1750
 562       2.527e+00       2.003e+00       1.091e-01           0.061           0.067          -0.996       1.792e-01          0.1152
 563       2.281e+00       2.003e+00       9.340e-02           0.066           0.066          -0.996       2.121e-01          0.0429
 564       2.001e+00       2.003e+00       7.624e-02           0.057           0.067          -0.996       2.325e-01         -0.0307
 565       1.703e+00       2.004e+00       6.268e-02           0.034           0.070          -0.997       2.393e-01         -0.0962
 566       1.406e+00       2.004e+00       5.928e-02          -0.012           0.077          -0.997       2.323e-01         -0.1186
 567       1.126e+00       2.004e+00       6.669e-02          -0.042           0.081          -0.996       2.121e-01         -0.0909
 568       8.793e-01       2.003e+00       7.770e-02          -0.048           0.082          -0.995       1.793e-01         -0.0739
[...]
 852       2.447e+00       8.771e+00       5.659e-01          -0.012           0.077          -0.997       5.133e-02         -0.1195
 853       2.309e+00       8.771e+00       5.695e-01          -0.042           0.081          -0.996       4.685e-02         -0.0900
 854       2.188e+00       8.771e+00       5.749e-01          -0.048           0.082          -0.995       3.961e-02         -0.0696
 855       2.090e+00       8.770e+00       5.798e-01          -0.052           0.083          -0.995       3.007e-02         -0.1202
 856       2.021e+00       8.770e+00       5.851e-01          -0.118           0.097          -0.988       1.889e-02         -0.4245
 857       1.986e+00       8.770e+00       5.959e-01          -0.644           0.196          -0.740       8.502e-03         -0.1641
 858       1.986e+00       8.768e+00       6.188e-01          -0.847           0.156           0.508       1.275e-02          0.8602
 859       2.021e+00       8.767e+00       6.512e-01          -0.545           0.067           0.836       2.251e-02          0.0376
 860       2.090e+00       8.765e+00       6.845e-01          -0.356           0.021           0.934       3.217e-02         -0.4222
 861       2.188e+00       8.763e+00       7.127e-01          -0.211          -0.010           0.977       4.042e-02         -0.6594
 862       2.309e+00       8.763e+00       7.306e-01          -0.090          -0.034           0.995       4.688e-02         -0.7566
 863       2.447e+00       8.762e+00       7.345e-01           0.028          -0.053           0.998       5.121e-02         -0.7398
 864       2.593e+00       8.763e+00       7.222e-01           0.138          -0.069           0.988       5.325e-02         -0.5817
 865       2.740e+00       8.764e+00       6.969e-01           0.203          -0.076           0.976       5.232e-02         -0.3537
 866       2.878e+00       8.766e+00       6.663e-01           0.233          -0.078           0.969       4.807e-02         -0.1426
 867       2.999e+00       8.767e+00       6.374e-01           0.230          -0.078           0.970       4.062e-02          0.0248
 868       3.097e+00       8.769e+00       6.157e-01           0.199          -0.077           0.977       3.062e-02          0.1410
 869       3.166e+00       8.769e+00       6.032e-01           0.149          -0.075           0.986       1.895e-02          0.2110
 870       3.201e+00       8.769e+00       5.984e-01           0.097          -0.073           0.993       6.399e-03          0.2424
Strip 34
 871       3.213e+00       9.094e+00       6.204e-01          -0.022           0.071          -0.997       5.012e-03          0.2355
 872       3.180e+00       9.094e+00       6.203e-01           0.012           0.069          -0.998       1.474e-02          0.2130
 873       3.115e+00       9.094e+00       6.183e-01           0.042           0.068          -0.997       2.364e-02          0.1708
 874       3.022e+00       9.094e+00       6.134e-01           0.061           0.067          -0.996       3.117e-02          0.1100
 875       2.906e+00       9.094e+00       6.061e-01           0.066           0.066          -0.996       3.689e-02          0.0369
 876       2.775e+00       9.095e+00       5.981e-01           0.057           0.067          -0.996       4.044e-02         -0.0373
 877       2.636e+00       9.095e+00       5.917e-01           0.034           0.070          -0.997       4.161e-02         -0.1032
 878       2.497e+00       9.095e+00       5.902e-01          -0.012           0.077          -0.997       4.039e-02         -0.1257
 879       2.366e+00       9.095e+00       5.936e-01          -0.042           0.081          -0.996       3.686e-02         -0.0974
 880       2.250e+00       9.095e+00       5.988e-01          -0.048           0.082          -0.995       3.117e-02         -0.0789
 881       2.157e+00       9.095e+00       6.034e-01          -0.052           0.083          -0.995       2.366e-02         -0.1331
 882       2.092e+00       9.094e+00       6.084e-01          -0.118           0.097          -0.988       1.486e-02         -0.4512
 883       2.058e+00       9.094e+00       6.187e-01          -0.644           0.196          -0.739       6.686e-03         -0.2051
 884       2.058e+00       9.092e+00       6.404e-01          -0.847           0.156           0.509       1.003e-02          0.8692
 885       2.092e+00       9.091e+00       6.712e-01          -0.544           0.067           0.836       1.772e-02          0.0586
 886       2.157e+00       9.089e+00       7.029e-01          -0.356           0.021           0.934       2.532e-02         -0.4004
 887       2.250e+00       9.087e+00       7.297e-01          -0.211          -0.010           0.977       3.181e-02         -0.6359
 888       2.366e+00       9.086e+00       7.467e-01          -0.090          -0.034           0.995       3.689e-02         -0.7311
 889       2.497e+00       9.086e+00       7.504e-01           0.028          -0.053           0.998       4.029e-02         -0.7136
 890       2.636e+00       9.087e+00       7.387e-01           0.138          -0.069           0.988       4.189e-02         -0.5581
 891       2.775e+00       9.088e+00       7.147e-01           0.203          -0.076           0.976       4.116e-02         -0.3354
 892       2.906e+00       9.090e+00       6.855e-01           0.233          -0.078           0.969       3.781e-02         -0.1303
 893       3.022e+00       9.091e+00       6.581e-01           0.230          -0.078           0.970       3.196e-02          0.0320
 894       3.115e+00       9.093e+00       6.375e-01           0.199          -0.077           0.977       2.409e-02          0.1446
 895       3.180e+00       9.093e+00       6.256e-01           0.149          -0.075           0.986       1.491e-02          0.2120
 896       3.213e+00       9.094e+00       6.210e-01           0.097          -0.073           0.993       5.034e-03          0.2421
Strip 35
 897       3.224e+00       9.356e+00       6.387e-01          -0.022           0.071          -0.997       3.769e-03          0.2310
 898       3.192e+00       9.356e+00       6.386e-01           0.012           0.069          -0.998       1.109e-02          0.2076
 899       3.129e+00       9.356e+00       6.367e-01           0.042           0.068          -0.997       1.777e-02          0.1643
 900       3.040e+00       9.356e+00       6.320e-01           0.061           0.067          -0.996       2.344e-02          0.1032
 901       2.929e+00       9.356e+00       6.250e-01           0.066           0.066          -0.996       2.774e-02          0.0306
 902       2.804e+00       9.357e+00       6.173e-01           0.057           0.067          -0.996       3.041e-02         -0.0426
 903       2.670e+00       9.357e+00       6.113e-01           0.034           0.070          -0.997       3.129e-02         -0.1079
 904       2.537e+00       9.357e+00       6.098e-01          -0.012           0.077          -0.997       3.037e-02         -0.1310
 905       2.411e+00       9.357e+00       6.131e-01          -0.042           0.081          -0.996       2.772e-02         -0.1048
 906       2.301e+00       9.357e+00       6.180e-01          -0.048           0.082          -0.995       2.344e-02         -0.0894
 907       2.212e+00       9.357e+00       6.224e-01          -0.052           0.083          -0.995       1.779e-02         -0.1487
 908       2.149e+00       9.356e+00       6.273e-01          -0.118           0.097          -0.988       1.117e-02         -0.4836
 909       2.117e+00       9.356e+00       6.371e-01          -0.644           0.196          -0.739       5.026e-03         -0.2538
 910       2.117e+00       9.354e+00       6.579e-01          -0.846           0.156           0.509       7.549e-03          0.8763
 911       2.149e+00       9.353e+00       6.874e-01          -0.544           0.067           0.836       1.333e-02          0.0812
 912       2.212e+00       9.351e+00       7.178e-01          -0.356           0.021           0.934       1.904e-02         -0.3730
 913       2.301e+00       9.349e+00       7.434e-01          -0.211          -0.010           0.977       2.393e-02         -0.6011
 914       2.411e+00       9.348e+00       7.597e-01          -0.090          -0.034           0.995       2.774e-02         -0.6885
 915       2.537e+00       9.348e+00       7.633e-01           0.028          -0.053           0.998       3.030e-02         -0.6674
 916       2.670e+00       9.349e+00       7.520e-01           0.138          -0.069           0.988       3.150e-02         -0.5167
 917       2.804e+00       9.350e+00       7.290e-01           0.203          -0.076           0.976       3.095e-02         -0.3049
 918       2.929e+00       9.352e+00       7.011e-01           0.233          -0.078           0.969       2.843e-02         -0.1118
 919       3.040e+00       9.353e+00       6.749e-01           0.230          -0.078           0.970       2.403e-02          0.0405
 920       3.129e+00       9.355e+00       6.551e-01           0.199          -0.077           0.977       1.812e-02          0.1464
 921       3.192e+00       9.355e+00       6.437e-01           0.149          -0.075           0.986       1.121e-02          0.2095
 922       3.224e+00       9.356e+00       6.393e-01           0.097          -0.073           0.993       3.786e-03          0.2374
Strip 36
 923       3.231e+00       9.554e+00       6.526e-01          -0.022           0.071          -0.997       2.621e-03          0.2165
 924       3.200e+00       9.554e+00       6.525e-01           0.012           0.069          -0.998       7.709e-03          0.1919
 925       3.140e+00       9.554e+00       6.506e-01           0.042           0.068          -0.997       1.236e-02          0.1473
 926       3.054e+00       9.554e+00       6.461e-01           0.061           0.067          -0.996       1.630e-02          0.0875
 927       2.947e+00       9.554e+00       6.393e-01           0.066           0.066          -0.996       1.929e-02          0.0188
 928       2.825e+00       9.555e+00       6.319e-01           0.057           0.067          -0.996       2.115e-02         -0.0490
 929       2.696e+00       9.555e+00       6.261e-01           0.034           0.070          -0.997       2.176e-02         -0.1099
 930       2.567e+00       9.555e+00       6.246e-01          -0.012           0.077          -0.997       2.112e-02         -0.1315
 931       2.446e+00       9.555e+00       6.278e-01          -0.042           0.081          -0.996       1.928e-02         -0.1076
 932       2.339e+00       9.555e+00       6.326e-01          -0.048           0.082          -0.995       1.630e-02         -0.0972
 933       2.253e+00       9.555e+00       6.368e-01          -0.052           0.083          -0.995       1.237e-02         -0.1640
 934       2.193e+00       9.554e+00       6.415e-01          -0.118           0.097          -0.988       7.768e-03         -0.5161
 935       2.161e+00       9.554e+00       6.510e-01          -0.645           0.196          -0.739       3.494e-03         -0.2964
 936       2.161e+00       9.552e+00       6.711e-01          -0.846           0.156           0.510       5.251e-03          0.8715
 937       2.193e+00       9.551e+00       6.997e-01          -0.544           0.067           0.836       9.275e-03          0.0919
 938       2.253e+00       9.549e+00       7.290e-01          -0.356           0.021           0.934       1.325e-02         -0.3444
 939       2.339e+00       9.547e+00       7.537e-01          -0.211          -0.010           0.977       1.664e-02         -0.5483
 940       2.446e+00       9.546e+00       7.695e-01          -0.090          -0.034           0.995       1.929e-02         -0.6156
 941       2.567e+00       9.546e+00       7.730e-01           0.028          -0.053           0.998       2.107e-02         -0.5883
 942       2.696e+00       9.547e+00       7.621e-01           0.138          -0.069           0.988       2.190e-02         -0.4496
 943       2.825e+00       9.548e+00       7.399e-01           0.203          -0.076           0.976       2.152e-02         -0.2611
 944       2.947e+00       9.550e+00       7.129e-01           0.233          -0.078           0.969       1.977e-02         -0.0923
 945       3.054e+00       9.551e+00       6.875e-01           0.230          -0.078           0.970       1.671e-02          0.0411
 946       3.140e+00       9.553e+00       6.685e-01           0.199          -0.077           0.977       1.260e-02          0.1357
 947       3.200e+00       9.553e+00       6.574e-01           0.149          -0.075           0.986       7.795e-03          0.1927
 948       3.231e+00       9.554e+00       6.532e-01           0.097          -0.073           0.993       2.633e-03          0.2178
Strip 37
 949       3.237e+00       9.686e+00       6.619e-01          -0.022           0.071          -0.997       1.543e-03          0.1686
 950       3.206e+00       9.686e+00       6.618e-01           0.012           0.069          -0.998       4.540e-03          0.1437
 951       3.147e+00       9.687e+00       6.600e-01           0.042           0.068          -0.997       7.279e-03          0.1019
 952       3.063e+00       9.687e+00       6.555e-01           0.061           0.067          -0.996       9.601e-03          0.0514
 953       2.959e+00       9.687e+00       6.489e-01           0.066           0.066          -0.996       1.136e-02         -0.0045
 954       2.840e+00       9.688e+00       6.417e-01           0.057           0.067          -0.996       1.245e-02         -0.0589
 955       2.714e+00       9.688e+00       6.360e-01           0.034           0.070          -0.997       1.282e-02         -0.1077
 956       2.588e+00       9.688e+00       6.345e-01          -0.012           0.077          -0.997       1.244e-02         -0.1239
 957       2.469e+00       9.688e+00       6.377e-01          -0.042           0.081          -0.996       1.135e-02         -0.1015
 958       2.365e+00       9.688e+00       6.423e-01          -0.048           0.082          -0.995       9.597e-03         -0.0945
 959       2.281e+00       9.687e+00       6.465e-01          -0.052           0.083          -0.995       7.285e-03         -0.1667
 960       2.222e+00       9.687e+00       6.511e-01          -0.118           0.097          -0.988       4.575e-03         -0.5323
 961       2.191e+00       9.687e+00       6.604e-01          -0.645           0.196          -0.739       2.057e-03         -0.3001
 962       2.191e+00       9.685e+00       6.800e-01          -0.846           0.155           0.510       3.093e-03          0.8118
 963       2.222e+00       9.683e+00       7.079e-01          -0.544           0.067           0.837       5.463e-03          0.0482
 964       2.281e+00       9.681e+00       7.365e-01          -0.356           0.021           0.934       7.801e-03         -0.3207
 965       2.365e+00       9.680e+00       7.607e-01          -0.211          -0.010           0.977       9.800e-03         -0.4633
 966       2.469e+00       9.679e+00       7.761e-01          -0.090          -0.034           0.995       1.136e-02         -0.4998
 967       2.588e+00       9.678e+00       7.795e-01           0.028          -0.053           0.998       1.241e-02         -0.4723
 968       2.714e+00       9.679e+00       7.689e-01           0.138          -0.069           0.988       1.290e-02         -0.3617
 969       2.840e+00       9.681e+00       7.472e-01           0.203          -0.076           0.976       1.267e-02         -0.2171
 970       2.959e+00       9.682e+00       7.208e-01           0.233          -0.078           0.969       1.164e-02         -0.0948
 971       3.063e+00       9.684e+00       6.960e-01           0.230          -0.078           0.970       9.840e-03         -0.0018
 972       3.147e+00       9.685e+00       6.774e-01           0.199          -0.077           0.977       7.419e-03          0.0684
 973       3.206e+00       9.686e+00       6.666e-01           0.149          -0.075           0.986       4.590e-03          0.1183
 974       3.237e+00       9.686e+00       6.625e-01           0.097          -0.073           0.993       1.550e-03          0.1425
Strip 38
 975       3.239e+00       9.753e+00       6.666e-01          -0.022           0.071          -0.997       5.096e-04          0.0964
 976       3.209e+00       9.753e+00       6.664e-01           0.012           0.069          -0.998       1.499e-03          0.0652
 977       3.151e+00       9.753e+00       6.647e-01           0.042           0.068          -0.997       2.403e-03          0.0198
 978       3.068e+00       9.753e+00       6.603e-01           0.061           0.067          -0.996       3.170e-03         -0.0168
 979       2.964e+00       9.754e+00       6.538e-01           0.066           0.066          -0.996       3.751e-03         -0.0469
 980       2.847e+00       9.754e+00       6.466e-01           0.057           0.067          -0.996       4.112e-03         -0.0750
 981       2.723e+00       9.755e+00       6.409e-01           0.034           0.070          -0.997       4.231e-03         -0.1011
 982       2.598e+00       9.755e+00       6.395e-01          -0.012           0.077          -0.997       4.106e-03         -0.1075
 983       2.481e+00       9.755e+00       6.426e-01          -0.042           0.081          -0.996       3.748e-03         -0.0889
 984       2.378e+00       9.754e+00       6.472e-01          -0.048           0.082          -0.995       3.169e-03         -0.0823
 985       2.294e+00       9.754e+00       6.513e-01          -0.052           0.083          -0.995       2.405e-03         -0.1370
 986       2.236e+00       9.754e+00       6.558e-01          -0.118           0.097          -0.988       1.510e-03         -0.4524
 987       2.206e+00       9.753e+00       6.650e-01          -0.645           0.196          -0.739       6.790e-04         -0.1520
 988       2.206e+00       9.752e+00       6.845e-01          -0.846           0.155           0.510       1.021e-03          0.7118
 989       2.236e+00       9.750e+00       7.120e-01          -0.544           0.067           0.837       1.804e-03         -0.0094
 990       2.294e+00       9.748e+00       7.403e-01          -0.356           0.021           0.934       2.576e-03         -0.2650
 991       2.378e+00       9.746e+00       7.642e-01          -0.211          -0.010           0.977       3.236e-03         -0.3563
 992       2.481e+00       9.745e+00       7.794e-01          -0.090          -0.034           0.995       3.751e-03         -0.3791
 993       2.598e+00       9.745e+00       7.828e-01           0.028          -0.053           0.998       4.096e-03         -0.3580
 994       2.723e+00       9.746e+00       7.723e-01           0.138          -0.069           0.988       4.259e-03         -0.2773
 995       2.847e+00       9.747e+00       7.508e-01           0.203          -0.076           0.976       4.184e-03         -0.1739
 996       2.964e+00       9.749e+00       7.248e-01           0.233          -0.078           0.969       3.844e-03         -0.0901
 997       3.068e+00       9.751e+00       7.003e-01           0.230          -0.078           0.970       3.249e-03         -0.0378
 998       3.151e+00       9.752e+00       6.819e-01           0.199          -0.077           0.977       2.449e-03         -0.0099
 999       3.209e+00       9.753e+00       6.712e-01           0.149          -0.075           0.986       1.515e-03          0.0150
1000       3.239e+00       9.753e+00       6.671e-01           0.097          -0.073           0.993       5.118e-04          0.0302










