xflr5 v6.61

Business Jet Wing
T1-10.0 m/s-Panel-Inviscid
QInf  =   10.000000 m/s
Alpha =   10.000000
Beta  =    0.000°
Phi   =    0.000°
Ctrl  =    0.000
CL    =    1.218686
Cy    =   -0.000000
Cd    =    0.045649     ICd   =    0.045649     PCd   =    0.000000
Cl   = -9.03116e-15
Cm   =   -0.942591
ICn   =    0.000000     PCn   =    0.000000 
XCP   =    1.568738     YCP   =    0.000000     ZCP   =    0.412057  
XNP   =    0.000000
Bending = 5396.668972

Main Wing
  y-span        Chord      Ai         Cl        PCd          ICd        CmGeom    CmAirf@chord/4    XTrtop    XTrBot      XCP       BM
   -9.7758     1.0461    -5.203    0.332304    0.000000    0.030243   -0.932243   -0.006422     0.0000    0.0000    0.2626    0.0000
   -9.7090     1.0586    -4.952    0.561088    0.000000    0.048587   -1.382629   -0.019153     0.0000    0.0000    0.2780    0.0488
   -9.5759     1.0835    -4.433    0.774213    0.000000    0.059976   -1.779106   -0.013771     0.0000    0.0000    0.2616    0.6434
   -9.3774     1.1206    -3.821    0.946447    0.000000    0.063147   -2.103723   -0.025006     0.0000    0.0000    0.2703    3.2683
   -9.1148     1.1697    -3.230    1.075054    0.000000    0.060591   -2.277425   -0.036761     0.0000    0.0000    0.2781   10.7817
   -8.7900     1.2305    -2.731    1.165080    0.000000    0.055476   -2.311701   -0.045557     0.0000    0.0000    0.2829   27.6286
   -8.4051     1.3024    -2.351    1.224393    0.000000    0.050145   -2.241863   -0.051400     0.0000    0.0000    0.2857   59.9141
   -7.9628     1.3851    -2.086    1.260680    0.000000    0.045790   -2.103976   -0.055067     0.0000    0.0000    0.2873   115.3776
   -7.4661     1.4780    -1.920    1.280154    0.000000    0.042769   -1.927150   -0.057288     0.0000    0.0000    0.2883   203.2932
   -6.9184     1.5804    -1.832    1.287355    0.000000    0.041016   -1.732391   -0.058567     0.0000    0.0000    0.2890   334.2968
   -6.3235     1.6916    -1.805    1.285419    0.000000    0.040323   -1.533832   -0.059231     0.0000    0.0000    0.2896   520.1334
   -5.6853     1.8110    -1.825    1.276386    0.000000    0.040443   -1.340422   -0.059479     0.0000    0.0000    0.2902   773.3125
   -5.0084     1.9375    -1.880    1.261507    0.000000    0.041156   -1.157480   -0.059437     0.0000    0.0000    0.2908   1106.6663
   -4.2972     2.0705    -1.963    1.241434    0.000000    0.042252   -0.987889   -0.059188     0.0000    0.0000    0.2914   1532.8088
   -3.5566     2.2090    -2.067    1.216353    0.000000    0.043537   -0.832993   -0.058812     0.0000    0.0000    0.2921   2063.5068
   -2.7918     2.3520    -2.183    1.186002    0.000000    0.044760   -0.693202   -0.058439     0.0000    0.0000    0.2931   2708.9751
   -2.0079     2.4986    -2.301    1.149632    0.000000    0.045569   -0.568598   -0.058399     0.0000    0.0000    0.2948   3477.1174
   -1.2102     2.6477    -2.402    1.105507    0.000000    0.045362   -0.459675   -0.059624     0.0000    0.0000    0.2980   4372.7330
   -0.4043     2.7984    -2.486    1.043047    0.000000    0.042302   -0.368945   -0.065175     0.0000    0.0000    0.3062   5396.6690
    0.4043     2.7984    -2.486    1.043047    0.000000    0.042302   -0.368945   -0.065175     0.0000    0.0000    0.3062   5396.6690
    1.2102     2.6477    -2.402    1.105507    0.000000    0.045362   -0.459675   -0.059624     0.0000    0.0000    0.2980   4372.7330
    2.0079     2.4986    -2.301    1.149632    0.000000    0.045569   -0.568598   -0.058399     0.0000    0.0000    0.2948   3477.1174
    2.7918     2.3520    -2.183    1.186002    0.000000    0.044760   -0.693202   -0.058439     0.0000    0.0000    0.2931   2708.9751
    3.5566     2.2090    -2.067    1.216353    0.000000    0.043537   -0.832993   -0.058812     0.0000    0.0000    0.2921   2063.5068
    4.2972     2.0705    -1.963    1.241434    0.000000    0.042252   -0.987889   -0.059188     0.0000    0.0000    0.2914   1532.8088
    5.0084     1.9375    -1.880    1.261507    0.000000    0.041156   -1.157480   -0.059437     0.0000    0.0000    0.2908   1106.6663
    5.6853     1.8110    -1.825    1.276386    0.000000    0.040443   -1.340422   -0.059479     0.0000    0.0000    0.2902   773.3125
    6.3235     1.6916    -1.805    1.285419    0.000000    0.040323   -1.533832   -0.059231     0.0000    0.0000    0.2896   520.1334
    6.9184     1.5804    -1.832    1.287355    0.000000    0.041016   -1.732391   -0.058567     0.0000    0.0000    0.2890   334.2968
    7.4661     1.4780    -1.920    1.280154    0.000000    0.042769   -1.927150   -0.057288     0.0000    0.0000    0.2883   203.2932
    7.9628     1.3851    -2.086    1.260680    0.000000    0.045790   -2.103976   -0.055067     0.0000    0.0000    0.2873   115.3776
    8.4051     1.3024    -2.351    1.224393    0.000000    0.050145   -2.241863   -0.051400     0.0000    0.0000    0.2857   59.9141
    8.7900     1.2305    -2.731    1.165080    0.000000    0.055476   -2.311701   -0.045557     0.0000    0.0000    0.2829   27.6286
    9.1148     1.1697    -3.230    1.075054    0.000000    0.060591   -2.277425   -0.036761     0.0000    0.0000    0.2781   10.7817
    9.3774     1.1206    -3.821    0.946447    0.000000    0.063147   -2.103723   -0.025006     0.0000    0.0000    0.2703    3.2683
    9.5759     1.0835    -4.433    0.774213    0.000000    0.059976   -1.779106   -0.013771     0.0000    0.0000    0.2616    0.6434
    9.7090     1.0586    -4.952    0.561088    0.000000    0.048587   -1.382629   -0.019153     0.0000    0.0000    0.2780    0.0488
    9.7758     1.0461    -5.203    0.332304    0.000000    0.030243   -0.932243   -0.006422     0.0000    0.0000    0.2626    0.0000


Main Wing Cp Coefficients
 Panel     CtrlPt.x        CtrlPt.y        CtrlPt.z       Nx      Ny       Nz        Area       Cp
Main WingCp Coefficients
Strip 1
  13       3.239e+00      -9.753e+00       6.666e-01          -0.022          -0.071          -0.997       5.096e-04         -0.9042
  14       3.209e+00      -9.753e+00       6.664e-01           0.012          -0.069          -0.998       1.499e-03         -0.9439
  15       3.151e+00      -9.753e+00       6.647e-01           0.042          -0.068          -0.997       2.403e-03         -0.9197
  16       3.068e+00      -9.753e+00       6.603e-01           0.061          -0.067          -0.996       3.170e-03         -0.7528
  17       2.964e+00      -9.754e+00       6.538e-01           0.066          -0.066          -0.996       3.751e-03         -0.5413
  18       2.847e+00      -9.754e+00       6.466e-01           0.057          -0.067          -0.996       4.112e-03         -0.3759
  19       2.723e+00      -9.755e+00       6.409e-01           0.034          -0.070          -0.997       4.231e-03         -0.2633
  20       2.598e+00      -9.755e+00       6.395e-01          -0.012          -0.077          -0.997       4.106e-03         -0.1699
  21       2.481e+00      -9.755e+00       6.426e-01          -0.042          -0.081          -0.996       3.748e-03         -0.0794
  22       2.378e+00      -9.754e+00       6.472e-01          -0.048          -0.082          -0.995       3.169e-03          0.0064
  23       2.294e+00      -9.754e+00       6.513e-01          -0.052          -0.083          -0.995       2.405e-03          0.1035
  24       2.236e+00      -9.754e+00       6.558e-01          -0.118          -0.097          -0.988       1.510e-03          0.2677
  25       2.206e+00      -9.753e+00       6.650e-01          -0.645          -0.196          -0.739       6.790e-04          0.7659
  26       2.206e+00      -9.752e+00       6.845e-01          -0.846          -0.155           0.510       1.021e-03         -0.6698
  27       2.236e+00      -9.750e+00       7.120e-01          -0.544          -0.067           0.837       1.804e-03         -1.0218
  28       2.294e+00      -9.748e+00       7.403e-01          -0.356          -0.021           0.934       2.576e-03         -0.8949
  29       2.378e+00      -9.746e+00       7.642e-01          -0.211           0.010           0.977       3.236e-03         -0.7984
  30       2.481e+00      -9.745e+00       7.794e-01          -0.090           0.034           0.995       3.751e-03         -0.7130
  31       2.598e+00      -9.745e+00       7.828e-01           0.028           0.053           0.998       4.096e-03         -0.6225
  32       2.723e+00      -9.746e+00       7.723e-01           0.138           0.069           0.988       4.259e-03         -0.5161
  33       2.847e+00      -9.747e+00       7.508e-01           0.203           0.076           0.976       4.184e-03         -0.4715
  34       2.964e+00      -9.749e+00       7.248e-01           0.233           0.078           0.969       3.844e-03         -0.5563
  35       3.068e+00      -9.751e+00       7.003e-01           0.230           0.078           0.970       3.249e-03         -0.7843
  36       3.151e+00      -9.752e+00       6.819e-01           0.199           0.077           0.977       2.449e-03         -1.0480
  37       3.209e+00      -9.753e+00       6.712e-01           0.149           0.075           0.986       1.515e-03         -1.1754
  38       3.239e+00      -9.753e+00       6.671e-01           0.097           0.073           0.993       5.118e-04         -1.2051
Strip 2
  39       3.237e+00      -9.686e+00       6.619e-01          -0.022          -0.071          -0.997       1.543e-03         -0.3308
  40       3.206e+00      -9.686e+00       6.618e-01           0.012          -0.069          -0.998       4.540e-03         -0.3472
  41       3.147e+00      -9.687e+00       6.600e-01           0.042          -0.068          -0.997       7.279e-03         -0.3389
  42       3.063e+00      -9.687e+00       6.555e-01           0.061          -0.067          -0.996       9.601e-03         -0.2917
  43       2.959e+00      -9.687e+00       6.489e-01           0.066          -0.066          -0.996       1.136e-02         -0.2386
  44       2.840e+00      -9.688e+00       6.417e-01           0.057          -0.067          -0.996       1.245e-02         -0.1953
  45       2.714e+00      -9.688e+00       6.360e-01           0.034          -0.070          -0.997       1.282e-02         -0.1563
  46       2.588e+00      -9.688e+00       6.345e-01          -0.012          -0.077          -0.997       1.244e-02         -0.0913
  47       2.469e+00      -9.688e+00       6.377e-01          -0.042          -0.081          -0.996       1.135e-02          0.0032
  48       2.365e+00      -9.688e+00       6.423e-01          -0.048          -0.082          -0.995       9.597e-03          0.1069
  49       2.281e+00      -9.687e+00       6.465e-01          -0.052          -0.083          -0.995       7.285e-03          0.2342
  50       2.222e+00      -9.687e+00       6.511e-01          -0.118          -0.097          -0.988       4.575e-03          0.4608
  51       2.191e+00      -9.687e+00       6.604e-01          -0.645          -0.196          -0.739       2.057e-03          0.8361
  52       2.191e+00      -9.685e+00       6.800e-01          -0.846          -0.155           0.510       3.093e-03         -1.0520
  53       2.222e+00      -9.683e+00       7.079e-01          -0.544          -0.067           0.837       5.463e-03         -1.3010
  54       2.281e+00      -9.681e+00       7.365e-01          -0.356          -0.021           0.934       7.801e-03         -1.1410
  55       2.365e+00      -9.680e+00       7.607e-01          -0.211           0.010           0.977       9.800e-03         -1.0027
  56       2.469e+00      -9.679e+00       7.761e-01          -0.090           0.034           0.995       1.136e-02         -0.8740
  57       2.588e+00      -9.678e+00       7.795e-01           0.028           0.053           0.998       1.241e-02         -0.7396
  58       2.714e+00      -9.679e+00       7.689e-01           0.138           0.069           0.988       1.290e-02         -0.5686
  59       2.840e+00      -9.681e+00       7.472e-01           0.203           0.076           0.976       1.267e-02         -0.4358
  60       2.959e+00      -9.682e+00       7.208e-01           0.233           0.078           0.969       1.164e-02         -0.3958
  61       3.063e+00      -9.684e+00       6.960e-01           0.230           0.078           0.970       9.840e-03         -0.4326
  62       3.147e+00      -9.685e+00       6.774e-01           0.199           0.077           0.977       7.419e-03         -0.4798
  63       3.206e+00      -9.686e+00       6.666e-01           0.149           0.075           0.986       4.590e-03         -0.4804
  64       3.237e+00      -9.686e+00       6.625e-01           0.097           0.073           0.993       1.550e-03         -0.4698
Strip 3
  65       3.231e+00      -9.554e+00       6.526e-01          -0.022          -0.071          -0.997       2.621e-03          0.1150
  66       3.200e+00      -9.554e+00       6.525e-01           0.012          -0.069          -0.998       7.709e-03          0.0943
  67       3.140e+00      -9.554e+00       6.506e-01           0.042          -0.068          -0.997       1.236e-02          0.0647
  68       3.054e+00      -9.554e+00       6.461e-01           0.061          -0.067          -0.996       1.630e-02          0.0267
  69       2.947e+00      -9.554e+00       6.393e-01           0.066          -0.066          -0.996       1.929e-02         -0.0085
  70       2.825e+00      -9.555e+00       6.319e-01           0.057          -0.067          -0.996       2.115e-02         -0.0287
  71       2.696e+00      -9.555e+00       6.261e-01           0.034          -0.070          -0.997       2.176e-02         -0.0275
  72       2.567e+00      -9.555e+00       6.246e-01          -0.012          -0.077          -0.997       2.112e-02          0.0260
  73       2.446e+00      -9.555e+00       6.278e-01          -0.042          -0.081          -0.996       1.928e-02          0.1309
  74       2.339e+00      -9.555e+00       6.326e-01          -0.048          -0.082          -0.995       1.630e-02          0.2580
  75       2.253e+00      -9.555e+00       6.368e-01          -0.052          -0.083          -0.995       1.237e-02          0.4141
  76       2.193e+00      -9.554e+00       6.415e-01          -0.118          -0.097          -0.988       7.768e-03          0.6682
  77       2.161e+00      -9.554e+00       6.510e-01          -0.645          -0.196          -0.739       3.494e-03          0.8478
  78       2.161e+00      -9.552e+00       6.711e-01          -0.846          -0.156           0.510       5.251e-03         -1.5541
  79       2.193e+00      -9.551e+00       6.997e-01          -0.544          -0.067           0.836       9.275e-03         -1.6217
  80       2.253e+00      -9.549e+00       7.290e-01          -0.356          -0.021           0.934       1.325e-02         -1.4150
  81       2.339e+00      -9.547e+00       7.537e-01          -0.211           0.010           0.977       1.664e-02         -1.2464
  82       2.446e+00      -9.546e+00       7.695e-01          -0.090           0.034           0.995       1.929e-02         -1.0753
  83       2.567e+00      -9.546e+00       7.730e-01           0.028           0.053           0.998       2.107e-02         -0.8852
  84       2.696e+00      -9.547e+00       7.621e-01           0.138           0.069           0.988       2.190e-02         -0.6320
  85       2.825e+00      -9.548e+00       7.399e-01           0.203           0.076           0.976       2.152e-02         -0.3870
  86       2.947e+00      -9.550e+00       7.129e-01           0.233           0.078           0.969       1.977e-02         -0.2021
  87       3.054e+00      -9.551e+00       6.875e-01           0.230           0.078           0.970       1.671e-02         -0.0726
  88       3.140e+00      -9.553e+00       6.685e-01           0.199           0.077           0.977       1.260e-02          0.0141
  89       3.200e+00      -9.553e+00       6.574e-01           0.149           0.075           0.986       7.795e-03          0.0677
  90       3.231e+00      -9.554e+00       6.532e-01           0.097           0.073           0.993       2.633e-03          0.0876
Strip 4
  91       3.224e+00      -9.356e+00       6.387e-01          -0.022          -0.071          -0.997       3.769e-03          0.2141
  92       3.192e+00      -9.356e+00       6.386e-01           0.012          -0.069          -0.998       1.109e-02          0.1966
  93       3.129e+00      -9.356e+00       6.367e-01           0.042          -0.068          -0.997       1.777e-02          0.1702
  94       3.040e+00      -9.356e+00       6.320e-01           0.061          -0.067          -0.996       2.344e-02          0.1309
  95       2.929e+00      -9.356e+00       6.250e-01           0.066          -0.066          -0.996       2.774e-02          0.0910
  96       2.804e+00      -9.357e+00       6.173e-01           0.057          -0.067          -0.996       3.041e-02          0.0645
  97       2.670e+00      -9.357e+00       6.113e-01           0.034          -0.070          -0.997       3.129e-02          0.0621
  98       2.537e+00      -9.357e+00       6.098e-01          -0.012          -0.077          -0.997       3.037e-02          0.1177
  99       2.411e+00      -9.357e+00       6.131e-01          -0.042          -0.081          -0.996       2.772e-02          0.2288
 100       2.301e+00      -9.357e+00       6.180e-01          -0.048          -0.082          -0.995       2.344e-02          0.3628
 101       2.212e+00      -9.357e+00       6.224e-01          -0.052          -0.083          -0.995       1.779e-02          0.5237
 102       2.149e+00      -9.356e+00       6.273e-01          -0.118          -0.097          -0.988       1.117e-02          0.7790
 103       2.117e+00      -9.356e+00       6.371e-01          -0.644          -0.196          -0.739       5.026e-03          0.7651
 104       2.117e+00      -9.354e+00       6.579e-01          -0.846          -0.156           0.509       7.549e-03         -2.0756
 105       2.149e+00      -9.353e+00       6.874e-01          -0.544          -0.067           0.836       1.333e-02         -1.9197
 106       2.212e+00      -9.351e+00       7.178e-01          -0.356          -0.021           0.934       1.904e-02         -1.6409
 107       2.301e+00      -9.349e+00       7.434e-01          -0.211           0.010           0.977       2.393e-02         -1.4468
 108       2.411e+00      -9.348e+00       7.597e-01          -0.090           0.034           0.995       2.774e-02         -1.2537
 109       2.537e+00      -9.348e+00       7.633e-01           0.028           0.053           0.998       3.030e-02         -1.0313
 110       2.670e+00      -9.349e+00       7.520e-01           0.138           0.069           0.988       3.150e-02         -0.7288
 111       2.804e+00      -9.350e+00       7.290e-01           0.203           0.076           0.976       3.095e-02         -0.4242
 112       2.929e+00      -9.352e+00       7.011e-01           0.233           0.078           0.969       2.843e-02         -0.1817
 113       3.040e+00      -9.353e+00       6.749e-01           0.230           0.078           0.970       2.403e-02         -0.0063
 114       3.129e+00      -9.355e+00       6.551e-01           0.199           0.077           0.977       1.812e-02          0.1097
 115       3.192e+00      -9.355e+00       6.437e-01           0.149           0.075           0.986       1.121e-02          0.1798
 116       3.224e+00      -9.356e+00       6.393e-01           0.097           0.073           0.993       3.786e-03          0.2070
Strip 5
 117       3.213e+00      -9.094e+00       6.204e-01          -0.022          -0.071          -0.997       5.012e-03          0.2486
 118       3.180e+00      -9.094e+00       6.203e-01           0.012          -0.069          -0.998       1.474e-02          0.2345
 119       3.115e+00      -9.094e+00       6.183e-01           0.042          -0.068          -0.997       2.364e-02          0.2129
 120       3.022e+00      -9.094e+00       6.134e-01           0.061          -0.067          -0.996       3.117e-02          0.1776
 121       2.906e+00      -9.094e+00       6.061e-01           0.066          -0.066          -0.996       3.689e-02          0.1416
 122       2.775e+00      -9.095e+00       5.981e-01           0.057          -0.067          -0.996       4.044e-02          0.1193
 123       2.636e+00      -9.095e+00       5.917e-01           0.034          -0.070          -0.997       4.161e-02          0.1214
 124       2.497e+00      -9.095e+00       5.902e-01          -0.012          -0.077          -0.997       4.039e-02          0.1809
 125       2.366e+00      -9.095e+00       5.936e-01          -0.042          -0.081          -0.996       3.686e-02          0.2942
 126       2.250e+00      -9.095e+00       5.988e-01          -0.048          -0.082          -0.995       3.117e-02          0.4289
 127       2.157e+00      -9.095e+00       6.034e-01          -0.052          -0.083          -0.995       2.366e-02          0.5910
 128       2.092e+00      -9.094e+00       6.084e-01          -0.118          -0.097          -0.988       1.486e-02          0.8412
 129       2.058e+00      -9.094e+00       6.187e-01          -0.644          -0.196          -0.739       6.686e-03          0.6557
 130       2.058e+00      -9.092e+00       6.404e-01          -0.847          -0.156           0.509       1.003e-02         -2.5345
 131       2.092e+00      -9.091e+00       6.712e-01          -0.544          -0.067           0.836       1.772e-02         -2.1700
 132       2.157e+00      -9.089e+00       7.029e-01          -0.356          -0.021           0.934       2.532e-02         -1.8186
 133       2.250e+00      -9.087e+00       7.297e-01          -0.211           0.010           0.977       3.181e-02         -1.5978
 134       2.366e+00      -9.086e+00       7.467e-01          -0.090           0.034           0.995       3.689e-02         -1.3882
 135       2.497e+00      -9.086e+00       7.504e-01           0.028           0.053           0.998       4.029e-02         -1.1469
 136       2.636e+00      -9.087e+00       7.387e-01           0.138           0.069           0.988       4.189e-02         -0.8157
 137       2.775e+00      -9.088e+00       7.147e-01           0.203           0.076           0.976       4.116e-02         -0.4774
 138       2.906e+00      -9.090e+00       6.855e-01           0.233           0.078           0.969       3.781e-02         -0.2037
 139       3.022e+00      -9.091e+00       6.581e-01           0.230           0.078           0.970       3.196e-02         -0.0037
 140       3.115e+00      -9.093e+00       6.375e-01           0.199           0.077           0.977       2.409e-02          0.1288
 141       3.180e+00      -9.093e+00       6.256e-01           0.149           0.075           0.986       1.491e-02          0.2097
 142       3.213e+00      -9.094e+00       6.210e-01           0.097           0.073           0.993       5.034e-03          0.2425
Strip 6
 143       3.201e+00      -8.770e+00       5.977e-01          -0.022          -0.071          -0.997       6.370e-03          0.2632
 144       3.166e+00      -8.770e+00       5.976e-01           0.012          -0.069          -0.998       1.874e-02          0.2518
 145       3.097e+00      -8.770e+00       5.955e-01           0.042          -0.068          -0.997       3.004e-02          0.2344
 146       2.999e+00      -8.770e+00       5.903e-01           0.061          -0.067          -0.996       3.962e-02          0.2031
 147       2.878e+00      -8.770e+00       5.826e-01           0.066          -0.066          -0.996       4.689e-02          0.1715
 148       2.740e+00      -8.771e+00       5.742e-01           0.057          -0.067          -0.996       5.139e-02          0.1538
 149       2.593e+00      -8.771e+00       5.676e-01           0.034          -0.070          -0.997       5.289e-02          0.1605
 150       2.447e+00      -8.771e+00       5.659e-01          -0.012          -0.077          -0.997       5.133e-02          0.2229
 151       2.309e+00      -8.771e+00       5.695e-01          -0.042          -0.081          -0.996       4.685e-02          0.3368
 152       2.188e+00      -8.771e+00       5.749e-01          -0.048          -0.082          -0.995       3.961e-02          0.4712
 153       2.090e+00      -8.770e+00       5.798e-01          -0.052          -0.083          -0.995       3.007e-02          0.6338
 154       2.021e+00      -8.770e+00       5.851e-01          -0.118          -0.097          -0.988       1.889e-02          0.8764
 155       1.986e+00      -8.770e+00       5.959e-01          -0.644          -0.196          -0.740       8.502e-03          0.5529
 156       1.986e+00      -8.768e+00       6.188e-01          -0.847          -0.156           0.508       1.275e-02         -2.8959
 157       2.021e+00      -8.767e+00       6.512e-01          -0.545          -0.067           0.836       2.251e-02         -2.3618
 158       2.090e+00      -8.765e+00       6.845e-01          -0.356          -0.021           0.934       3.217e-02         -1.9497
 159       2.188e+00      -8.763e+00       7.127e-01          -0.211           0.010           0.977       4.042e-02         -1.7053
 160       2.309e+00      -8.763e+00       7.306e-01          -0.090           0.034           0.995       4.688e-02         -1.4820
 161       2.447e+00      -8.762e+00       7.345e-01           0.028           0.053           0.998       5.121e-02         -1.2274
 162       2.593e+00      -8.763e+00       7.222e-01           0.138           0.069           0.988       5.325e-02         -0.8783
 163       2.740e+00      -8.764e+00       6.969e-01           0.203           0.076           0.976       5.232e-02         -0.5196
 164       2.878e+00      -8.766e+00       6.663e-01           0.233           0.078           0.969       4.807e-02         -0.2274
 165       2.999e+00      -8.767e+00       6.374e-01           0.230           0.078           0.970       4.062e-02         -0.0130
 166       3.097e+00      -8.769e+00       6.157e-01           0.199           0.077           0.977       3.062e-02          0.1295
 167       3.166e+00      -8.769e+00       6.032e-01           0.149           0.075           0.986       1.895e-02          0.2175
 168       3.201e+00      -8.769e+00       5.984e-01           0.097           0.073           0.993       6.399e-03          0.2540
Strip 7
 169       3.186e+00      -8.386e+00       5.708e-01          -0.022          -0.071          -0.997       7.858e-03          0.2706
 170       3.148e+00      -8.386e+00       5.707e-01           0.012          -0.069          -0.998       2.311e-02          0.2610
 171       3.076e+00      -8.386e+00       5.685e-01           0.042          -0.068          -0.997       3.706e-02          0.2465
 172       2.972e+00      -8.386e+00       5.630e-01           0.061          -0.067          -0.996       4.888e-02          0.2182
 173       2.844e+00      -8.386e+00       5.549e-01           0.066          -0.066          -0.996       5.784e-02          0.1899
 174       2.698e+00      -8.387e+00       5.460e-01           0.057          -0.067          -0.996       6.340e-02          0.1756
 175       2.543e+00      -8.387e+00       5.389e-01           0.034          -0.070          -0.997       6.524e-02          0.1854
 176       2.388e+00      -8.387e+00       5.371e-01          -0.012          -0.077          -0.997       6.333e-02          0.2496
 177       2.242e+00      -8.387e+00       5.410e-01          -0.042          -0.081          -0.996       5.780e-02          0.3637
 178       2.113e+00      -8.387e+00       5.467e-01          -0.048          -0.082          -0.995       4.887e-02          0.4978
 179       2.010e+00      -8.386e+00       5.518e-01          -0.052          -0.083          -0.995       3.710e-02          0.6606
 180       1.937e+00      -8.386e+00       5.575e-01          -0.118          -0.097          -0.988       2.330e-02          0.8960
 181       1.900e+00      -8.386e+00       5.689e-01          -0.643          -0.196          -0.740       1.049e-02          0.4732
 182       1.900e+00      -8.384e+00       5.932e-01          -0.847          -0.156           0.507       1.572e-02         -3.1528
 183       1.937e+00      -8.383e+00       6.275e-01          -0.545          -0.068           0.836       2.776e-02         -2.4961
 184       2.010e+00      -8.381e+00       6.628e-01          -0.356          -0.021           0.934       3.967e-02         -2.0396
 185       2.113e+00      -8.380e+00       6.926e-01          -0.211           0.010           0.977       4.986e-02         -1.7775
 186       2.242e+00      -8.379e+00       7.116e-01          -0.090           0.034           0.995       5.783e-02         -1.5437
 187       2.388e+00      -8.379e+00       7.157e-01           0.028           0.053           0.998       6.318e-02         -1.2799
 188       2.543e+00      -8.379e+00       7.027e-01           0.138           0.069           0.988       6.570e-02         -0.9191
 189       2.698e+00      -8.381e+00       6.759e-01           0.203           0.076           0.976       6.456e-02         -0.5480
 190       2.844e+00      -8.382e+00       6.434e-01           0.233           0.078           0.969       5.930e-02         -0.2448
 191       2.972e+00      -8.384e+00       6.129e-01           0.230           0.078           0.970       5.011e-02         -0.0218
 192       3.076e+00      -8.385e+00       5.899e-01           0.199           0.077           0.977       3.778e-02          0.1268
 193       3.148e+00      -8.385e+00       5.767e-01           0.149           0.075           0.986       2.337e-02          0.2192
 194       3.186e+00      -8.386e+00       5.715e-01           0.097           0.073           0.993       7.894e-03          0.2581
Strip 8
 195       3.169e+00      -7.944e+00       5.399e-01          -0.022          -0.071          -0.997       9.487e-03          0.2745
 196       3.129e+00      -7.944e+00       5.398e-01           0.012          -0.069          -0.998       2.790e-02          0.2662
 197       3.052e+00      -7.944e+00       5.374e-01           0.042          -0.068          -0.997       4.474e-02          0.2536
 198       2.942e+00      -7.945e+00       5.316e-01           0.061          -0.067          -0.996       5.901e-02          0.2272
 199       2.805e+00      -7.945e+00       5.230e-01           0.066          -0.066          -0.996       6.983e-02          0.2011
 200       2.650e+00      -7.945e+00       5.135e-01           0.057          -0.067          -0.996       7.654e-02          0.1889
 201       2.485e+00      -7.946e+00       5.060e-01           0.034          -0.070          -0.997       7.876e-02          0.2005
 202       2.320e+00      -7.946e+00       5.041e-01          -0.012          -0.077          -0.997       7.645e-02          0.2658
 203       2.165e+00      -7.946e+00       5.082e-01          -0.042          -0.081          -0.996       6.978e-02          0.3799
 204       2.028e+00      -7.945e+00       5.143e-01          -0.048          -0.082          -0.995       5.901e-02          0.5138
 205       1.918e+00      -7.945e+00       5.197e-01          -0.052          -0.083          -0.995       4.479e-02          0.6764
 206       1.841e+00      -7.945e+00       5.257e-01          -0.118          -0.097          -0.988       2.814e-02          0.9065
 207       1.801e+00      -7.944e+00       5.379e-01          -0.643          -0.196          -0.740       1.268e-02          0.4216
 208       1.801e+00      -7.943e+00       5.637e-01          -0.848          -0.156           0.507       1.897e-02         -3.3135
 209       1.841e+00      -7.942e+00       6.002e-01          -0.545          -0.068           0.836       3.350e-02         -2.5802
 210       1.918e+00      -7.940e+00       6.378e-01          -0.356          -0.021           0.934       4.787e-02         -2.0955
 211       2.028e+00      -7.939e+00       6.695e-01          -0.212           0.010           0.977       6.018e-02         -1.8221
 212       2.165e+00      -7.938e+00       6.897e-01          -0.090           0.034           0.995       6.981e-02         -1.5816
 213       2.320e+00      -7.938e+00       6.941e-01           0.028           0.053           0.998       7.627e-02         -1.3119
 214       2.485e+00      -7.938e+00       6.802e-01           0.138           0.069           0.988       7.932e-02         -0.9440
 215       2.650e+00      -7.940e+00       6.517e-01           0.203           0.076           0.976       7.794e-02         -0.5654
 216       2.805e+00      -7.941e+00       6.172e-01           0.233           0.078           0.969       7.160e-02         -0.2558
 217       2.942e+00      -7.942e+00       5.847e-01           0.230           0.078           0.970       6.051e-02         -0.0279
 218       3.052e+00      -7.943e+00       5.603e-01           0.199           0.077           0.977       4.561e-02          0.1243
 219       3.129e+00      -7.944e+00       5.461e-01           0.149           0.075           0.986       2.822e-02          0.2194
 220       3.169e+00      -7.944e+00       5.407e-01           0.097           0.073           0.993       9.530e-03          0.2597
Strip 9
 221       3.149e+00      -7.449e+00       5.053e-01          -0.022          -0.071          -0.997       1.126e-02          0.2768
 222       3.107e+00      -7.449e+00       5.051e-01           0.012          -0.069          -0.998       3.312e-02          0.2692
 223       3.025e+00      -7.449e+00       5.026e-01           0.042          -0.068          -0.997       5.309e-02          0.2577
 224       2.907e+00      -7.449e+00       4.964e-01           0.061          -0.067          -0.996       7.003e-02          0.2325
 225       2.761e+00      -7.449e+00       4.871e-01           0.066          -0.066          -0.996       8.287e-02          0.2075
 226       2.596e+00      -7.450e+00       4.770e-01           0.057          -0.067          -0.996       9.084e-02          0.1966
 227       2.420e+00      -7.450e+00       4.690e-01           0.034          -0.070          -0.997       9.347e-02          0.2092
 228       2.244e+00      -7.450e+00       4.670e-01          -0.012          -0.077          -0.997       9.073e-02          0.2749
 229       2.078e+00      -7.450e+00       4.714e-01          -0.042          -0.081          -0.996       8.283e-02          0.3888
 230       1.932e+00      -7.450e+00       4.779e-01          -0.048          -0.082          -0.995       7.003e-02          0.5223
 231       1.815e+00      -7.450e+00       4.837e-01          -0.052          -0.083          -0.995       5.316e-02          0.6846
 232       1.732e+00      -7.449e+00       4.901e-01          -0.118          -0.097          -0.988       3.340e-02          0.9116
 233       1.690e+00      -7.449e+00       5.031e-01          -0.643          -0.196          -0.741       1.505e-02          0.3965
 234       1.690e+00      -7.448e+00       5.306e-01          -0.848          -0.156           0.506       2.250e-02         -3.3935
 235       1.732e+00      -7.446e+00       5.696e-01          -0.545          -0.068           0.835       3.974e-02         -2.6232
 236       1.815e+00      -7.445e+00       6.097e-01          -0.357          -0.021           0.934       5.680e-02         -2.1246
 237       1.932e+00      -7.444e+00       6.435e-01          -0.212           0.010           0.977       7.141e-02         -1.8458
 238       2.078e+00      -7.443e+00       6.651e-01          -0.090           0.034           0.995       8.285e-02         -1.6020
 239       2.244e+00      -7.443e+00       6.698e-01           0.028           0.053           0.998       9.052e-02         -1.3293
 240       2.420e+00      -7.443e+00       6.550e-01           0.138           0.069           0.988       9.415e-02         -0.9576
 241       2.596e+00      -7.444e+00       6.246e-01           0.203           0.076           0.976       9.252e-02         -0.5751
 242       2.761e+00      -7.446e+00       5.877e-01           0.233           0.078           0.969       8.499e-02         -0.2620
 243       2.907e+00      -7.447e+00       5.530e-01           0.230           0.078           0.970       7.182e-02         -0.0314
 244       3.025e+00      -7.448e+00       5.269e-01           0.199           0.077           0.977       5.414e-02          0.1227
 245       3.107e+00      -7.448e+00       5.119e-01           0.149           0.075           0.986       3.349e-02          0.2193
 246       3.149e+00      -7.449e+00       5.061e-01           0.097           0.073           0.993       1.131e-02          0.2605
Strip 10
 247       3.128e+00      -6.902e+00       4.670e-01          -0.022          -0.071          -0.997       1.317e-02          0.2782
 248       3.083e+00      -6.902e+00       4.669e-01           0.012          -0.069          -0.998       3.874e-02          0.2710
 249       2.995e+00      -6.902e+00       4.642e-01           0.042          -0.068          -0.997       6.211e-02          0.2601
 250       2.869e+00      -6.903e+00       4.575e-01           0.061          -0.067          -0.996       8.192e-02          0.2354
 251       2.713e+00      -6.903e+00       4.476e-01           0.066          -0.066          -0.996       9.695e-02          0.2109
 252       2.536e+00      -6.903e+00       4.368e-01           0.057          -0.067          -0.996       1.063e-01          0.2003
 253       2.348e+00      -6.904e+00       4.282e-01           0.034          -0.070          -0.997       1.094e-01          0.2132
 254       2.160e+00      -6.904e+00       4.261e-01          -0.012          -0.077          -0.997       1.062e-01          0.2789
 255       1.982e+00      -6.903e+00       4.308e-01          -0.042          -0.081          -0.996       9.690e-02          0.3925
 256       1.827e+00      -6.903e+00       4.377e-01          -0.048          -0.082          -0.995       8.193e-02          0.5255
 257       1.701e+00      -6.903e+00       4.440e-01          -0.052          -0.083          -0.995       6.219e-02          0.6872
 258       1.613e+00      -6.903e+00       4.508e-01          -0.118          -0.097          -0.988       3.908e-02          0.9133
 259       1.567e+00      -6.902e+00       4.647e-01          -0.642          -0.196          -0.741       1.762e-02          0.3938
 260       1.567e+00      -6.901e+00       4.941e-01          -0.849          -0.156           0.505       2.631e-02         -3.4085
 261       1.613e+00      -6.900e+00       5.358e-01          -0.546          -0.068           0.835       4.647e-02         -2.6336
 262       1.701e+00      -6.899e+00       5.787e-01          -0.357          -0.021           0.934       6.642e-02         -2.1330
 263       1.827e+00      -6.898e+00       6.149e-01          -0.212           0.010           0.977       8.353e-02         -1.8537
 264       1.982e+00      -6.897e+00       6.380e-01          -0.090           0.034           0.995       9.692e-02         -1.6097
 265       2.160e+00      -6.897e+00       6.430e-01           0.028           0.053           0.998       1.059e-01         -1.3363
 266       2.348e+00      -6.897e+00       6.271e-01           0.138           0.069           0.988       1.102e-01         -0.9635
 267       2.536e+00      -6.898e+00       5.946e-01           0.203           0.076           0.976       1.082e-01         -0.5794
 268       2.713e+00      -6.899e+00       5.552e-01           0.233           0.078           0.969       9.944e-02         -0.2648
 269       2.869e+00      -6.901e+00       5.181e-01           0.230           0.078           0.970       8.402e-02         -0.0329
 270       2.995e+00      -6.902e+00       4.902e-01           0.199           0.077           0.977       6.334e-02          0.1221
 271       3.083e+00      -6.902e+00       4.741e-01           0.149           0.075           0.986       3.918e-02          0.2194
 272       3.128e+00      -6.902e+00       4.679e-01           0.097           0.073           0.993       1.323e-02          0.2609
Strip 11
 273       3.105e+00      -6.309e+00       4.255e-01          -0.022          -0.071          -0.997       1.522e-02          0.2790
 274       3.056e+00      -6.309e+00       4.253e-01           0.012          -0.069          -0.998       4.475e-02          0.2719
 275       2.962e+00      -6.309e+00       4.224e-01           0.042          -0.068          -0.997       7.175e-02          0.2611
 276       2.828e+00      -6.309e+00       4.153e-01           0.061          -0.067          -0.996       9.463e-02          0.2365
 277       2.661e+00      -6.309e+00       4.047e-01           0.066          -0.066          -0.996       1.120e-01          0.2121
 278       2.471e+00      -6.310e+00       3.931e-01           0.057          -0.067          -0.996       1.227e-01          0.2015
 279       2.270e+00      -6.310e+00       3.839e-01           0.034          -0.070          -0.997       1.263e-01          0.2141
 280       2.068e+00      -6.310e+00       3.816e-01          -0.012          -0.077          -0.997       1.226e-01          0.2794
 281       1.879e+00      -6.310e+00       3.867e-01          -0.042          -0.081          -0.996       1.119e-01          0.3924
 282       1.712e+00      -6.310e+00       3.941e-01          -0.048          -0.082          -0.995       9.465e-02          0.5248
 283       1.577e+00      -6.309e+00       4.008e-01          -0.052          -0.083          -0.995       7.185e-02          0.6858
 284       1.483e+00      -6.309e+00       4.081e-01          -0.118          -0.097          -0.988       4.514e-02          0.9124
 285       1.434e+00      -6.309e+00       4.230e-01          -0.642          -0.196          -0.741       2.036e-02          0.4087
 286       1.434e+00      -6.308e+00       4.545e-01          -0.849          -0.157           0.505       3.038e-02         -3.3720
 287       1.483e+00      -6.307e+00       4.991e-01          -0.546          -0.068           0.835       5.365e-02         -2.6182
 288       1.577e+00      -6.305e+00       5.451e-01          -0.357          -0.021           0.934       7.670e-02         -2.1252
 289       1.712e+00      -6.304e+00       5.838e-01          -0.212           0.010           0.977       9.646e-02         -1.8497
 290       1.879e+00      -6.304e+00       6.085e-01          -0.090           0.034           0.995       1.119e-01         -1.6079
 291       2.068e+00      -6.304e+00       6.139e-01           0.028           0.053           0.998       1.223e-01         -1.3359
 292       2.270e+00      -6.304e+00       5.969e-01           0.138           0.069           0.988       1.273e-01         -0.9637
 293       2.471e+00      -6.305e+00       5.621e-01           0.203           0.076           0.976       1.251e-01         -0.5798
 294       2.661e+00      -6.306e+00       5.199e-01           0.233           0.078           0.969       1.149e-01         -0.2652
 295       2.828e+00      -6.307e+00       4.802e-01           0.230           0.078           0.970       9.706e-02         -0.0331
 296       2.962e+00      -6.308e+00       4.503e-01           0.199           0.077           0.977       7.317e-02          0.1221
 297       3.056e+00      -6.309e+00       4.331e-01           0.149           0.075           0.986       4.526e-02          0.2197
 298       3.105e+00      -6.309e+00       4.264e-01           0.097           0.073           0.993       1.529e-02          0.2614
Strip 12
 299       3.080e+00      -5.672e+00       3.809e-01          -0.022          -0.071          -0.997       1.737e-02          0.2794
 300       3.028e+00      -5.672e+00       3.807e-01           0.012          -0.069          -0.998       5.110e-02          0.2723
 301       2.927e+00      -5.672e+00       3.776e-01           0.042          -0.068          -0.997       8.192e-02          0.2614
 302       2.783e+00      -5.672e+00       3.700e-01           0.061          -0.067          -0.996       1.080e-01          0.2365
 303       2.604e+00      -5.673e+00       3.587e-01           0.066          -0.066          -0.996       1.279e-01          0.2117
 304       2.401e+00      -5.673e+00       3.463e-01           0.057          -0.067          -0.996       1.401e-01          0.2006
 305       2.186e+00      -5.673e+00       3.364e-01           0.034          -0.070          -0.997       1.442e-01          0.2126
 306       1.970e+00      -5.673e+00       3.340e-01          -0.012          -0.077          -0.997       1.400e-01          0.2772
 307       1.767e+00      -5.673e+00       3.393e-01          -0.042          -0.081          -0.996       1.278e-01          0.3895
 308       1.589e+00      -5.673e+00       3.473e-01          -0.048          -0.082          -0.995       1.081e-01          0.5210
 309       1.445e+00      -5.673e+00       3.545e-01          -0.052          -0.083          -0.995       8.203e-02          0.6810
 310       1.344e+00      -5.673e+00       3.623e-01          -0.118          -0.097          -0.988       5.155e-02          0.9093
 311       1.292e+00      -5.672e+00       3.783e-01          -0.642          -0.196          -0.742       2.326e-02          0.4375
 312       1.292e+00      -5.671e+00       4.120e-01          -0.849          -0.157           0.504       3.467e-02         -3.2941
 313       1.344e+00      -5.670e+00       4.598e-01          -0.546          -0.068           0.835       6.123e-02         -2.5821
 314       1.445e+00      -5.669e+00       5.090e-01          -0.357          -0.021           0.934       8.755e-02         -2.1046
 315       1.589e+00      -5.668e+00       5.505e-01          -0.212           0.010           0.977       1.101e-01         -1.8362
 316       1.767e+00      -5.668e+00       5.769e-01          -0.090           0.034           0.995       1.278e-01         -1.5987
 317       1.970e+00      -5.667e+00       5.827e-01           0.028           0.053           0.998       1.397e-01         -1.3297
 318       2.186e+00      -5.668e+00       5.645e-01           0.138           0.069           0.988       1.453e-01         -0.9598
 319       2.401e+00      -5.669e+00       5.272e-01           0.203           0.076           0.976       1.428e-01         -0.5775
 320       2.604e+00      -5.670e+00       4.820e-01           0.233           0.078           0.969       1.312e-01         -0.2638
 321       2.783e+00      -5.671e+00       4.395e-01           0.230           0.078           0.970       1.108e-01         -0.0322
 322       2.927e+00      -5.671e+00       4.075e-01           0.199           0.077           0.977       8.354e-02          0.1227
 323       3.028e+00      -5.672e+00       3.890e-01           0.149           0.075           0.986       5.168e-02          0.2201
 324       3.080e+00      -5.672e+00       3.819e-01           0.097           0.073           0.993       1.745e-02          0.2617
Strip 13
 325       3.054e+00      -4.997e+00       3.336e-01          -0.022          -0.071          -0.997       1.962e-02          0.2796
 326       2.998e+00      -4.997e+00       3.334e-01           0.012          -0.069          -0.998       5.770e-02          0.2723
 327       2.890e+00      -4.997e+00       3.301e-01           0.042          -0.068          -0.997       9.251e-02          0.2610
 328       2.736e+00      -4.997e+00       3.220e-01           0.061          -0.067          -0.996       1.220e-01          0.2356
 329       2.545e+00      -4.997e+00       3.098e-01           0.066          -0.066          -0.996       1.444e-01          0.2102
 330       2.328e+00      -4.997e+00       2.966e-01           0.057          -0.067          -0.996       1.583e-01          0.1983
 331       2.097e+00      -4.998e+00       2.860e-01           0.034          -0.070          -0.997       1.629e-01          0.2092
 332       1.866e+00      -4.998e+00       2.834e-01          -0.012          -0.077          -0.997       1.581e-01          0.2728
 333       1.649e+00      -4.998e+00       2.892e-01          -0.042          -0.081          -0.996       1.443e-01          0.3841
 334       1.458e+00      -4.997e+00       2.977e-01          -0.048          -0.082          -0.995       1.221e-01          0.5146
 335       1.304e+00      -4.997e+00       3.053e-01          -0.052          -0.083          -0.995       9.265e-02          0.6734
 336       1.196e+00      -4.997e+00       3.137e-01          -0.118          -0.097          -0.988       5.822e-02          0.9041
 337       1.140e+00      -4.997e+00       3.308e-01          -0.641          -0.196          -0.742       2.628e-02          0.4770
 338       1.140e+00      -4.996e+00       3.669e-01          -0.850          -0.157           0.503       3.914e-02         -3.1820
 339       1.196e+00      -4.995e+00       4.180e-01          -0.546          -0.068           0.835       6.912e-02         -2.5286
 340       1.304e+00      -4.994e+00       4.707e-01          -0.357          -0.021           0.934       9.884e-02         -2.0731
 341       1.458e+00      -4.993e+00       5.151e-01          -0.212           0.010           0.977       1.243e-01         -1.8148
 342       1.649e+00      -4.993e+00       5.434e-01          -0.090           0.034           0.995       1.443e-01         -1.5836
 343       1.866e+00      -4.993e+00       5.496e-01           0.028           0.053           0.998       1.577e-01         -1.3189
 344       2.097e+00      -4.993e+00       5.301e-01           0.138           0.069           0.988       1.641e-01         -0.9525
 345       2.328e+00      -4.994e+00       4.902e-01           0.203           0.076           0.976       1.613e-01         -0.5729
 346       2.545e+00      -4.995e+00       4.418e-01           0.233           0.078           0.969       1.481e-01         -0.2610
 347       2.736e+00      -4.996e+00       3.963e-01           0.230           0.078           0.970       1.252e-01         -0.0305
 348       2.890e+00      -4.996e+00       3.621e-01           0.199           0.077           0.977       9.435e-02          0.1238
 349       2.998e+00      -4.997e+00       3.423e-01           0.149           0.075           0.986       5.837e-02          0.2207
 350       3.054e+00      -4.997e+00       3.347e-01           0.097           0.073           0.993       1.971e-02          0.2621
Strip 14
 351       3.026e+00      -4.287e+00       2.840e-01          -0.022          -0.071          -0.997       2.193e-02          0.2797
 352       2.967e+00      -4.287e+00       2.838e-01           0.012          -0.069          -0.998       6.449e-02          0.2719
 353       2.851e+00      -4.287e+00       2.802e-01           0.042          -0.068          -0.997       1.034e-01          0.2601
 354       2.687e+00      -4.287e+00       2.715e-01           0.061          -0.067          -0.996       1.364e-01          0.2340
 355       2.482e+00      -4.288e+00       2.585e-01           0.066          -0.066          -0.996       1.614e-01          0.2077
 356       2.250e+00      -4.288e+00       2.443e-01           0.057          -0.067          -0.996       1.769e-01          0.1946
 357       2.004e+00      -4.288e+00       2.331e-01           0.034          -0.070          -0.997       1.820e-01          0.2043
 358       1.757e+00      -4.288e+00       2.303e-01          -0.012          -0.077          -0.997       1.767e-01          0.2665
 359       1.525e+00      -4.288e+00       2.364e-01          -0.042          -0.081          -0.996       1.613e-01          0.3768
 360       1.321e+00      -4.288e+00       2.455e-01          -0.048          -0.082          -0.995       1.364e-01          0.5059
 361       1.156e+00      -4.288e+00       2.537e-01          -0.052          -0.083          -0.995       1.035e-01          0.6631
 362       1.041e+00      -4.287e+00       2.627e-01          -0.118          -0.097          -0.988       6.507e-02          0.8965
 363       9.815e-01      -4.287e+00       2.810e-01          -0.641          -0.196          -0.742       2.938e-02          0.5249
 364       9.815e-01      -4.287e+00       3.195e-01          -0.850          -0.157           0.503       4.373e-02         -3.0392
 365       1.041e+00      -4.286e+00       3.742e-01          -0.547          -0.068           0.835       7.722e-02         -2.4593
 366       1.156e+00      -4.285e+00       4.305e-01          -0.357          -0.021           0.934       1.104e-01         -2.0319
 367       1.321e+00      -4.284e+00       4.779e-01          -0.212           0.010           0.977       1.389e-01         -1.7866
 368       1.525e+00      -4.284e+00       5.082e-01          -0.090           0.034           0.995       1.613e-01         -1.5632
 369       1.757e+00      -4.284e+00       5.148e-01           0.028           0.053           0.998       1.763e-01         -1.3041
 370       2.004e+00      -4.284e+00       4.940e-01           0.138           0.069           0.988       1.834e-01         -0.9425
 371       2.250e+00      -4.285e+00       4.513e-01           0.203           0.076           0.976       1.802e-01         -0.5665
 372       2.482e+00      -4.285e+00       3.996e-01           0.233           0.078           0.969       1.656e-01         -0.2570
 373       2.687e+00      -4.286e+00       3.510e-01           0.230           0.078           0.970       1.399e-01         -0.0281
 374       2.851e+00      -4.287e+00       3.144e-01           0.199           0.077           0.977       1.054e-01          0.1251
 375       2.967e+00      -4.287e+00       2.933e-01           0.149           0.075           0.986       6.523e-02          0.2214
 376       3.026e+00      -4.287e+00       2.851e-01           0.097           0.073           0.993       2.203e-02          0.2624
Strip 15
 377       2.997e+00      -3.548e+00       2.323e-01          -0.022          -0.071          -0.997       2.426e-02          0.2796
 378       2.934e+00      -3.548e+00       2.320e-01           0.012          -0.069          -0.998       7.134e-02          0.2713
 379       2.811e+00      -3.548e+00       2.282e-01           0.042          -0.068          -0.997       1.144e-01          0.2587
 380       2.635e+00      -3.548e+00       2.190e-01           0.061          -0.067          -0.996       1.508e-01          0.2318
 381       2.417e+00      -3.549e+00       2.051e-01           0.066          -0.066          -0.996       1.785e-01          0.2044
 382       2.170e+00      -3.549e+00       1.900e-01           0.057          -0.067          -0.996       1.957e-01          0.1899
 383       1.907e+00      -3.549e+00       1.780e-01           0.034          -0.070          -0.997       2.014e-01          0.1979
 384       1.644e+00      -3.549e+00       1.750e-01          -0.012          -0.077          -0.997       1.955e-01          0.2585
 385       1.396e+00      -3.549e+00       1.815e-01          -0.042          -0.081          -0.996       1.785e-01          0.3674
 386       1.178e+00      -3.549e+00       1.912e-01          -0.048          -0.082          -0.995       1.509e-01          0.4949
 387       1.002e+00      -3.549e+00       2.000e-01          -0.052          -0.083          -0.995       1.146e-01          0.6501
 388       8.794e-01      -3.549e+00       2.096e-01          -0.118          -0.097          -0.988       7.200e-02          0.8860
 389       8.160e-01      -3.548e+00       2.290e-01          -0.641          -0.196          -0.742       3.252e-02          0.5799
 390       8.160e-01      -3.548e+00       2.702e-01          -0.850          -0.157           0.502       4.836e-02         -2.8674
 391       8.794e-01      -3.547e+00       3.285e-01          -0.547          -0.068           0.834       8.540e-02         -2.3745
 392       1.002e+00      -3.546e+00       3.886e-01          -0.357          -0.021           0.934       1.221e-01         -1.9812
 393       1.178e+00      -3.546e+00       4.392e-01          -0.212           0.010           0.977       1.537e-01         -1.7516
 394       1.396e+00      -3.546e+00       4.715e-01          -0.090           0.034           0.995       1.784e-01         -1.5378
 395       1.644e+00      -3.545e+00       4.786e-01           0.028           0.053           0.998       1.950e-01         -1.2858
 396       1.907e+00      -3.546e+00       4.564e-01           0.138           0.069           0.988       2.029e-01         -0.9300
 397       2.170e+00      -3.546e+00       4.109e-01           0.203           0.076           0.976       1.994e-01         -0.5586
 398       2.417e+00      -3.547e+00       3.557e-01           0.233           0.078           0.969       1.832e-01         -0.2522
 399       2.635e+00      -3.547e+00       3.038e-01           0.230           0.078           0.970       1.548e-01         -0.0253
 400       2.811e+00      -3.548e+00       2.647e-01           0.199           0.077           0.977       1.167e-01          0.1267
 401       2.934e+00      -3.548e+00       2.422e-01           0.149           0.075           0.986       7.217e-02          0.2221
 402       2.997e+00      -3.548e+00       2.335e-01           0.097           0.073           0.993       2.437e-02          0.2627
Strip 16
 403       2.967e+00      -2.785e+00       1.788e-01          -0.022          -0.071          -0.997       2.657e-02          0.2793
 404       2.900e+00      -2.785e+00       1.786e-01           0.012          -0.069          -0.998       7.815e-02          0.2705
 405       2.769e+00      -2.785e+00       1.746e-01           0.042          -0.068          -0.997       1.253e-01          0.2569
 406       2.582e+00      -2.785e+00       1.647e-01           0.061          -0.067          -0.996       1.652e-01          0.2291
 407       2.350e+00      -2.786e+00       1.499e-01           0.066          -0.066          -0.996       1.955e-01          0.2003
 408       2.086e+00      -2.786e+00       1.338e-01           0.057          -0.067          -0.996       2.143e-01          0.1842
 409       1.806e+00      -2.786e+00       1.210e-01           0.034          -0.070          -0.997       2.206e-01          0.1901
 410       1.526e+00      -2.786e+00       1.178e-01          -0.012          -0.077          -0.997       2.141e-01          0.2488
 411       1.263e+00      -2.786e+00       1.248e-01          -0.042          -0.081          -0.996       1.955e-01          0.3559
 412       1.031e+00      -2.786e+00       1.352e-01          -0.048          -0.082          -0.995       1.653e-01          0.4815
 413       8.436e-01      -2.786e+00       1.445e-01          -0.052          -0.083          -0.995       1.255e-01          0.6339
 414       7.125e-01      -2.785e+00       1.547e-01          -0.118          -0.097          -0.988       7.887e-02          0.8717
 415       6.450e-01      -2.785e+00       1.754e-01          -0.641          -0.196          -0.742       3.563e-02          0.6411
 416       6.450e-01      -2.785e+00       2.193e-01          -0.851          -0.157           0.502       5.296e-02         -2.6643
 417       7.125e-01      -2.784e+00       2.814e-01          -0.547          -0.068           0.834       9.352e-02         -2.2728
 418       8.436e-01      -2.784e+00       3.453e-01          -0.357          -0.022           0.934       1.338e-01         -1.9198
 419       1.031e+00      -2.783e+00       3.993e-01          -0.212           0.010           0.977       1.683e-01         -1.7092
 420       1.263e+00      -2.783e+00       4.336e-01          -0.090           0.034           0.995       1.954e-01         -1.5073
 421       1.526e+00      -2.783e+00       4.412e-01           0.028           0.053           0.998       2.137e-01         -1.2639
 422       1.806e+00      -2.783e+00       4.175e-01           0.138           0.069           0.988       2.223e-01         -0.9154
 423       2.086e+00      -2.784e+00       3.690e-01           0.203           0.076           0.976       2.185e-01         -0.5495
 424       2.350e+00      -2.784e+00       3.103e-01           0.233           0.078           0.969       2.007e-01         -0.2468
 425       2.582e+00      -2.785e+00       2.550e-01           0.230           0.078           0.970       1.696e-01         -0.0222
 426       2.769e+00      -2.785e+00       2.134e-01           0.199           0.077           0.977       1.278e-01          0.1284
 427       2.900e+00      -2.785e+00       1.894e-01           0.149           0.075           0.986       7.905e-02          0.2228
 428       2.967e+00      -2.785e+00       1.801e-01           0.097           0.073           0.993       2.670e-02          0.2629
Strip 17
 429       2.937e+00      -2.003e+00       1.241e-01          -0.022          -0.071          -0.997       2.883e-02          0.2787
 430       2.865e+00      -2.003e+00       1.238e-01           0.012          -0.069          -0.998       8.478e-02          0.2694
 431       2.726e+00      -2.003e+00       1.196e-01           0.042          -0.068          -0.997       1.359e-01          0.2549
 432       2.527e+00      -2.003e+00       1.091e-01           0.061          -0.067          -0.996       1.792e-01          0.2259
 433       2.281e+00      -2.003e+00       9.340e-02           0.066          -0.066          -0.996       2.121e-01          0.1957
 434       2.001e+00      -2.003e+00       7.624e-02           0.057          -0.067          -0.996       2.325e-01          0.1777
 435       1.703e+00      -2.004e+00       6.268e-02           0.034          -0.070          -0.997       2.393e-01          0.1813
 436       1.406e+00      -2.004e+00       5.928e-02          -0.012          -0.077          -0.997       2.323e-01          0.2375
 437       1.126e+00      -2.004e+00       6.669e-02          -0.042          -0.081          -0.996       2.121e-01          0.3423
 438       8.793e-01      -2.003e+00       7.770e-02          -0.048          -0.082          -0.995       1.793e-01          0.4650
 439       6.807e-01      -2.003e+00       8.756e-02          -0.052          -0.083          -0.995       1.361e-01          0.6136
 440       5.415e-01      -2.003e+00       9.842e-02          -0.118          -0.097          -0.988       8.557e-02          0.8520
 441       4.698e-01      -2.003e+00       1.205e-01          -0.640          -0.196          -0.743       3.867e-02          0.7086
 442       4.698e-01      -2.003e+00       1.670e-01          -0.851          -0.157           0.502       5.744e-02         -2.4209
 443       5.415e-01      -2.003e+00       2.331e-01          -0.547          -0.068           0.834       1.014e-01         -2.1483
 444       6.807e-01      -2.002e+00       3.010e-01          -0.357          -0.022           0.934       1.451e-01         -1.8448
 445       8.793e-01      -2.002e+00       3.583e-01          -0.212           0.010           0.977       1.826e-01         -1.6580
 446       1.126e+00      -2.002e+00       3.948e-01          -0.090           0.034           0.995       2.120e-01         -1.4712
 447       1.406e+00      -2.002e+00       4.028e-01           0.028           0.053           0.998       2.318e-01         -1.2391
 448       1.703e+00      -2.002e+00       3.777e-01           0.138           0.069           0.988       2.412e-01         -0.8994
 449       2.001e+00      -2.002e+00       3.262e-01           0.203           0.076           0.976       2.370e-01         -0.5401
 450       2.281e+00      -2.002e+00       2.637e-01           0.232           0.078           0.969       2.177e-01         -0.2415
 451       2.527e+00      -2.003e+00       2.050e-01           0.230           0.078           0.970       1.839e-01         -0.0195
 452       2.726e+00      -2.003e+00       1.608e-01           0.199           0.077           0.977       1.386e-01          0.1298
 453       2.865e+00      -2.003e+00       1.353e-01           0.149           0.075           0.986       8.576e-02          0.2232
 454       2.937e+00      -2.003e+00       1.255e-01           0.097           0.073           0.993       2.896e-02          0.2628
Strip 18
 455       2.906e+00      -1.207e+00       6.840e-02          -0.022          -0.071          -0.997       3.097e-02          0.2779
 456       2.830e+00      -1.207e+00       6.813e-02           0.012          -0.069          -0.998       9.109e-02          0.2680
 457       2.682e+00      -1.207e+00       6.359e-02           0.042          -0.068          -0.997       1.460e-01          0.2526
 458       2.472e+00      -1.207e+00       5.247e-02           0.061          -0.067          -0.996       1.926e-01          0.2225
 459       2.211e+00      -1.208e+00       3.586e-02           0.066          -0.066          -0.996       2.279e-01          0.1909
 460       1.914e+00      -1.208e+00       1.767e-02           0.057          -0.067          -0.996       2.498e-01          0.1711
 461       1.599e+00      -1.208e+00       3.303e-03           0.034          -0.070          -0.997       2.571e-01          0.1722
 462       1.284e+00      -1.208e+00      -3.037e-04          -0.012          -0.077          -0.997       2.496e-01          0.2255
 463       9.868e-01      -1.208e+00       7.551e-03          -0.042          -0.081          -0.996       2.279e-01          0.3269
 464       7.255e-01      -1.208e+00       1.922e-02          -0.048          -0.082          -0.995       1.927e-01          0.4453
 465       5.150e-01      -1.208e+00       2.968e-02          -0.052          -0.083          -0.995       1.463e-01          0.5877
 466       3.675e-01      -1.207e+00       4.118e-02          -0.118          -0.097          -0.988       9.194e-02          0.8232
 467       2.915e-01      -1.207e+00       6.455e-02          -0.640          -0.196          -0.743       4.155e-02          0.7853
 468       2.915e-01      -1.207e+00       1.139e-01          -0.851          -0.157           0.501       6.170e-02         -2.1125
 469       3.675e-01      -1.207e+00       1.839e-01          -0.547          -0.068           0.834       1.089e-01         -1.9860
 470       5.150e-01      -1.207e+00       2.559e-01          -0.358          -0.022           0.934       1.559e-01         -1.7467
 471       7.255e-01      -1.207e+00       3.166e-01          -0.212           0.010           0.977       1.962e-01         -1.5930
 472       9.868e-01      -1.206e+00       3.553e-01          -0.090           0.034           0.995       2.278e-01         -1.4288
 473       1.284e+00      -1.206e+00       3.638e-01           0.028           0.053           0.998       2.490e-01         -1.2131
 474       1.599e+00      -1.207e+00       3.372e-01           0.138           0.069           0.988       2.591e-01         -0.8855
 475       1.914e+00      -1.207e+00       2.826e-01           0.203           0.076           0.976       2.547e-01         -0.5336
 476       2.211e+00      -1.207e+00       2.164e-01           0.232           0.078           0.969       2.339e-01         -0.2387
 477       2.472e+00      -1.207e+00       1.541e-01           0.230           0.078           0.970       1.976e-01         -0.0184
 478       2.682e+00      -1.207e+00       1.073e-01           0.199           0.077           0.977       1.490e-01          0.1299
 479       2.830e+00      -1.207e+00       8.028e-02           0.149           0.075           0.986       9.214e-02          0.2229
 480       2.906e+00      -1.207e+00       6.985e-02           0.097           0.073           0.993       3.112e-02          0.2621
Strip 19
 481       2.875e+00      -4.034e-01       1.212e-02          -0.022          -0.071          -0.997       3.296e-02          0.2770
 482       2.794e+00      -4.034e-01       1.184e-02           0.012          -0.069          -0.998       9.693e-02          0.2665
 483       2.638e+00      -4.034e-01       7.039e-03           0.042          -0.068          -0.997       1.554e-01          0.2502
 484       2.416e+00      -4.034e-01      -4.719e-03           0.061          -0.067          -0.996       2.049e-01          0.2188
 485       2.140e+00      -4.034e-01      -2.228e-02           0.066          -0.066          -0.996       2.425e-01          0.1856
 486       1.826e+00      -4.034e-01      -4.150e-02           0.057          -0.067          -0.996       2.658e-01          0.1645
 487       1.493e+00      -4.035e-01      -5.669e-02           0.034          -0.070          -0.997       2.736e-01          0.1646
 488       1.160e+00      -4.035e-01      -6.050e-02          -0.012          -0.077          -0.997       2.656e-01          0.2162
 489       8.462e-01      -4.035e-01      -5.220e-02          -0.042          -0.081          -0.996       2.425e-01          0.3139
 490       5.701e-01      -4.034e-01      -3.986e-02          -0.048          -0.082          -0.995       2.051e-01          0.4278
 491       3.476e-01      -4.034e-01      -2.881e-02          -0.052          -0.083          -0.995       1.557e-01          0.5586
 492       1.916e-01      -4.034e-01      -1.665e-02          -0.118          -0.097          -0.988       9.785e-02          0.7810
 493       1.113e-01      -4.034e-01       8.052e-03          -0.640          -0.196          -0.743       4.423e-02          0.8745
 494       1.113e-01      -4.033e-01       6.023e-02          -0.851          -0.157           0.501       6.564e-02         -1.6515
 495       1.916e-01      -4.033e-01       1.342e-01          -0.547          -0.068           0.834       1.159e-01         -1.7178
 496       3.476e-01      -4.032e-01       2.103e-01          -0.358          -0.022           0.934       1.658e-01         -1.5828
 497       5.701e-01      -4.031e-01       2.745e-01          -0.212           0.010           0.977       2.087e-01         -1.4944
 498       8.462e-01      -4.031e-01       3.154e-01          -0.090           0.034           0.995       2.424e-01         -1.3798
 499       1.160e+00      -4.031e-01       3.244e-01           0.028           0.053           0.998       2.650e-01         -1.2020
 500       1.493e+00      -4.031e-01       2.963e-01           0.138           0.069           0.988       2.758e-01         -0.8903
 501       1.826e+00      -4.031e-01       2.385e-01           0.203           0.076           0.976       2.710e-01         -0.5421
 502       2.140e+00      -4.032e-01       1.686e-01           0.232           0.078           0.969       2.489e-01         -0.2453
 503       2.416e+00      -4.033e-01       1.028e-01           0.230           0.078           0.970       2.103e-01         -0.0221
 504       2.638e+00      -4.033e-01       5.328e-02           0.199           0.077           0.977       1.585e-01          0.1279
 505       2.794e+00      -4.034e-01       2.468e-02           0.149           0.075           0.986       9.806e-02          0.2216
 506       2.875e+00      -4.034e-01       1.365e-02           0.097           0.073           0.993       3.311e-02          0.2612
Strip 20
 507       2.875e+00       4.034e-01       1.212e-02          -0.022           0.071          -0.997       3.296e-02          0.2770
 508       2.794e+00       4.034e-01       1.184e-02           0.012           0.069          -0.998       9.693e-02          0.2665
 509       2.638e+00       4.034e-01       7.039e-03           0.042           0.068          -0.997       1.554e-01          0.2502
 510       2.416e+00       4.034e-01      -4.719e-03           0.061           0.067          -0.996       2.049e-01          0.2188
 511       2.140e+00       4.034e-01      -2.228e-02           0.066           0.066          -0.996       2.425e-01          0.1856
 512       1.826e+00       4.034e-01      -4.150e-02           0.057           0.067          -0.996       2.658e-01          0.1645
 513       1.493e+00       4.035e-01      -5.669e-02           0.034           0.070          -0.997       2.736e-01          0.1646
 514       1.160e+00       4.035e-01      -6.050e-02          -0.012           0.077          -0.997       2.656e-01          0.2162
 515       8.462e-01       4.035e-01      -5.220e-02          -0.042           0.081          -0.996       2.425e-01          0.3139
 516       5.701e-01       4.034e-01      -3.986e-02          -0.048           0.082          -0.995       2.051e-01          0.4278
 517       3.476e-01       4.034e-01      -2.881e-02          -0.052           0.083          -0.995       1.557e-01          0.5586
 518       1.916e-01       4.034e-01      -1.665e-02          -0.118           0.097          -0.988       9.785e-02          0.7810
 519       1.113e-01       4.034e-01       8.052e-03          -0.640           0.196          -0.743       4.423e-02          0.8745
 520       1.113e-01       4.033e-01       6.023e-02          -0.851           0.157           0.501       6.564e-02         -1.6515
 521       1.916e-01       4.033e-01       1.342e-01          -0.547           0.068           0.834       1.159e-01         -1.7178
 522       3.476e-01       4.032e-01       2.103e-01          -0.358           0.022           0.934       1.658e-01         -1.5828
 523       5.701e-01       4.031e-01       2.745e-01          -0.212          -0.010           0.977       2.087e-01         -1.4944
 524       8.462e-01       4.031e-01       3.154e-01          -0.090          -0.034           0.995       2.424e-01         -1.3798
 525       1.160e+00       4.031e-01       3.244e-01           0.028          -0.053           0.998       2.650e-01         -1.2020
 526       1.493e+00       4.031e-01       2.963e-01           0.138          -0.069           0.988       2.758e-01         -0.8903
 527       1.826e+00       4.031e-01       2.385e-01           0.203          -0.076           0.976       2.710e-01         -0.5421
 528       2.140e+00       4.032e-01       1.686e-01           0.232          -0.078           0.969       2.489e-01         -0.2453
 529       2.416e+00       4.033e-01       1.028e-01           0.230          -0.078           0.970       2.103e-01         -0.0221
 530       2.638e+00       4.033e-01       5.328e-02           0.199          -0.077           0.977       1.585e-01          0.1279
 531       2.794e+00       4.034e-01       2.468e-02           0.149          -0.075           0.986       9.806e-02          0.2216
 532       2.875e+00       4.034e-01       1.365e-02           0.097          -0.073           0.993       3.311e-02          0.2612
Strip 21
 533       2.906e+00       1.207e+00       6.840e-02          -0.022           0.071          -0.997       3.097e-02          0.2779
 534       2.830e+00       1.207e+00       6.813e-02           0.012           0.069          -0.998       9.109e-02          0.2680
 535       2.682e+00       1.207e+00       6.359e-02           0.042           0.068          -0.997       1.460e-01          0.2526
 536       2.472e+00       1.207e+00       5.247e-02           0.061           0.067          -0.996       1.926e-01          0.2225
 537       2.211e+00       1.208e+00       3.586e-02           0.066           0.066          -0.996       2.279e-01          0.1909
 538       1.914e+00       1.208e+00       1.767e-02           0.057           0.067          -0.996       2.498e-01          0.1711
 539       1.599e+00       1.208e+00       3.303e-03           0.034           0.070          -0.997       2.571e-01          0.1722
 540       1.284e+00       1.208e+00      -3.037e-04          -0.012           0.077          -0.997       2.496e-01          0.2255
 541       9.868e-01       1.208e+00       7.551e-03          -0.042           0.081          -0.996       2.279e-01          0.3269
 542       7.255e-01       1.208e+00       1.922e-02          -0.048           0.082          -0.995       1.927e-01          0.4453
 543       5.150e-01       1.208e+00       2.968e-02          -0.052           0.083          -0.995       1.463e-01          0.5877
 544       3.675e-01       1.207e+00       4.118e-02          -0.118           0.097          -0.988       9.194e-02          0.8232
 545       2.915e-01       1.207e+00       6.455e-02          -0.640           0.196          -0.743       4.155e-02          0.7853
 546       2.915e-01       1.207e+00       1.139e-01          -0.851           0.157           0.501       6.170e-02         -2.1125
 547       3.675e-01       1.207e+00       1.839e-01          -0.547           0.068           0.834       1.089e-01         -1.9860
 548       5.150e-01       1.207e+00       2.559e-01          -0.358           0.022           0.934       1.559e-01         -1.7467
 549       7.255e-01       1.207e+00       3.166e-01          -0.212          -0.010           0.977       1.962e-01         -1.5930
 550       9.868e-01       1.206e+00       3.553e-01          -0.090          -0.034           0.995       2.278e-01         -1.4288
 551       1.284e+00       1.206e+00       3.638e-01           0.028          -0.053           0.998       2.490e-01         -1.2131
 552       1.599e+00       1.207e+00       3.372e-01           0.138          -0.069           0.988       2.591e-01         -0.8855
 553       1.914e+00       1.207e+00       2.826e-01           0.203          -0.076           0.976       2.547e-01         -0.5336
 554       2.211e+00       1.207e+00       2.164e-01           0.232          -0.078           0.969       2.339e-01         -0.2387
 555       2.472e+00       1.207e+00       1.541e-01           0.230          -0.078           0.970       1.976e-01         -0.0184
 556       2.682e+00       1.207e+00       1.073e-01           0.199          -0.077           0.977       1.490e-01          0.1299
 557       2.830e+00       1.207e+00       8.028e-02           0.149          -0.075           0.986       9.214e-02          0.2229
 558       2.906e+00       1.207e+00       6.985e-02           0.097          -0.073           0.993       3.112e-02          0.2621
Strip 22
 559       2.937e+00       2.003e+00       1.241e-01          -0.022           0.071          -0.997       2.883e-02          0.2787
 560       2.865e+00       2.003e+00       1.238e-01           0.012           0.069          -0.998       8.478e-02          0.2694
 561       2.726e+00       2.003e+00       1.196e-01           0.042           0.068          -0.997       1.359e-01          0.2549
 562       2.527e+00       2.003e+00       1.091e-01           0.061           0.067          -0.996       1.792e-01          0.2259
 563       2.281e+00       2.003e+00       9.340e-02           0.066           0.066          -0.996       2.121e-01          0.1957
 564       2.001e+00       2.003e+00       7.624e-02           0.057           0.067          -0.996       2.325e-01          0.1777
 565       1.703e+00       2.004e+00       6.268e-02           0.034           0.070          -0.997       2.393e-01          0.1813
 566       1.406e+00       2.004e+00       5.928e-02          -0.012           0.077          -0.997       2.323e-01          0.2375
 567       1.126e+00       2.004e+00       6.669e-02          -0.042           0.081          -0.996       2.121e-01          0.3423
 568       8.793e-01       2.003e+00       7.770e-02          -0.048           0.082          -0.995       1.793e-01          0.4650
[...]
 852       2.447e+00       8.771e+00       5.659e-01          -0.012           0.077          -0.997       5.133e-02          0.2229
 853       2.309e+00       8.771e+00       5.695e-01          -0.042           0.081          -0.996       4.685e-02          0.3368
 854       2.188e+00       8.771e+00       5.749e-01          -0.048           0.082          -0.995       3.961e-02          0.4712
 855       2.090e+00       8.770e+00       5.798e-01          -0.052           0.083          -0.995       3.007e-02          0.6338
 856       2.021e+00       8.770e+00       5.851e-01          -0.118           0.097          -0.988       1.889e-02          0.8764
 857       1.986e+00       8.770e+00       5.959e-01          -0.644           0.196          -0.740       8.502e-03          0.5529
 858       1.986e+00       8.768e+00       6.188e-01          -0.847           0.156           0.508       1.275e-02         -2.8959
 859       2.021e+00       8.767e+00       6.512e-01          -0.545           0.067           0.836       2.251e-02         -2.3618
 860       2.090e+00       8.765e+00       6.845e-01          -0.356           0.021           0.934       3.217e-02         -1.9497
 861       2.188e+00       8.763e+00       7.127e-01          -0.211          -0.010           0.977       4.042e-02         -1.7053
 862       2.309e+00       8.763e+00       7.306e-01          -0.090          -0.034           0.995       4.688e-02         -1.4820
 863       2.447e+00       8.762e+00       7.345e-01           0.028          -0.053           0.998       5.121e-02         -1.2274
 864       2.593e+00       8.763e+00       7.222e-01           0.138          -0.069           0.988       5.325e-02         -0.8783
 865       2.740e+00       8.764e+00       6.969e-01           0.203          -0.076           0.976       5.232e-02         -0.5196
 866       2.878e+00       8.766e+00       6.663e-01           0.233          -0.078           0.969       4.807e-02         -0.2274
 867       2.999e+00       8.767e+00       6.374e-01           0.230          -0.078           0.970       4.062e-02         -0.0130
 868       3.097e+00       8.769e+00       6.157e-01           0.199          -0.077           0.977       3.062e-02          0.1295
 869       3.166e+00       8.769e+00       6.032e-01           0.149          -0.075           0.986       1.895e-02          0.2175
 870       3.201e+00       8.769e+00       5.984e-01           0.097          -0.073           0.993       6.399e-03          0.2540
Strip 34
 871       3.213e+00       9.094e+00       6.204e-01          -0.022           0.071          -0.997       5.012e-03          0.2486
 872       3.180e+00       9.094e+00       6.203e-01           0.012           0.069          -0.998       1.474e-02          0.2345
 873       3.115e+00       9.094e+00       6.183e-01           0.042           0.068          -0.997       2.364e-02          0.2129
 874       3.022e+00       9.094e+00       6.134e-01           0.061           0.067          -0.996       3.117e-02          0.1776
 875       2.906e+00       9.094e+00       6.061e-01           0.066           0.066          -0.996       3.689e-02          0.1416
 876       2.775e+00       9.095e+00       5.981e-01           0.057           0.067          -0.996       4.044e-02          0.1193
 877       2.636e+00       9.095e+00       5.917e-01           0.034           0.070          -0.997       4.161e-02          0.1214
 878       2.497e+00       9.095e+00       5.902e-01          -0.012           0.077          -0.997       4.039e-02          0.1809
 879       2.366e+00       9.095e+00       5.936e-01          -0.042           0.081          -0.996       3.686e-02          0.2942
 880       2.250e+00       9.095e+00       5.988e-01          -0.048           0.082          -0.995       3.117e-02          0.4289
 881       2.157e+00       9.095e+00       6.034e-01          -0.052           0.083          -0.995       2.366e-02          0.5910
 882       2.092e+00       9.094e+00       6.084e-01          -0.118           0.097          -0.988       1.486e-02          0.8412
 883       2.058e+00       9.094e+00       6.187e-01          -0.644           0.196          -0.739       6.686e-03          0.6557
 884       2.058e+00       9.092e+00       6.404e-01          -0.847           0.156           0.509       1.003e-02         -2.5345
 885       2.092e+00       9.091e+00       6.712e-01          -0.544           0.067           0.836       1.772e-02         -2.1700
 886       2.157e+00       9.089e+00       7.029e-01          -0.356           0.021           0.934       2.532e-02         -1.8186
 887       2.250e+00       9.087e+00       7.297e-01          -0.211          -0.010           0.977       3.181e-02         -1.5978
 888       2.366e+00       9.086e+00       7.467e-01          -0.090          -0.034           0.995       3.689e-02         -1.3882
 889       2.497e+00       9.086e+00       7.504e-01           0.028          -0.053           0.998       4.029e-02         -1.1469
 890       2.636e+00       9.087e+00       7.387e-01           0.138          -0.069           0.988       4.189e-02         -0.8157
 891       2.775e+00       9.088e+00       7.147e-01           0.203          -0.076           0.976       4.116e-02         -0.4774
 892       2.906e+00       9.090e+00       6.855e-01           0.233          -0.078           0.969       3.781e-02         -0.2037
 893       3.022e+00       9.091e+00       6.581e-01           0.230          -0.078           0.970       3.196e-02         -0.0037
 894       3.115e+00       9.093e+00       6.375e-01           0.199          -0.077           0.977       2.409e-02          0.1288
 895       3.180e+00       9.093e+00       6.256e-01           0.149          -0.075           0.986       1.491e-02          0.2097
 896       3.213e+00       9.094e+00       6.210e-01           0.097          -0.073           0.993       5.034e-03          0.2425
Strip 35
 897       3.224e+00       9.356e+00       6.387e-01          -0.022           0.071          -0.997       3.769e-03          0.2141
 898       3.192e+00       9.356e+00       6.386e-01           0.012           0.069          -0.998       1.109e-02          0.1966
 899       3.129e+00       9.356e+00       6.367e-01           0.042           0.068          -0.997       1.777e-02          0.1702
 900       3.040e+00       9.356e+00       6.320e-01           0.061           0.067          -0.996       2.344e-02          0.1309
 901       2.929e+00       9.356e+00       6.250e-01           0.066           0.066          -0.996       2.774e-02          0.0910
 902       2.804e+00       9.357e+00       6.173e-01           0.057           0.067          -0.996       3.041e-02          0.0645
 903       2.670e+00       9.357e+00       6.113e-01           0.034           0.070          -0.997       3.129e-02          0.0621
 904       2.537e+00       9.357e+00       6.098e-01          -0.012           0.077          -0.997       3.037e-02          0.1177
 905       2.411e+00       9.357e+00       6.131e-01          -0.042           0.081          -0.996       2.772e-02          0.2288
 906       2.301e+00       9.357e+00       6.180e-01          -0.048           0.082          -0.995       2.344e-02          0.3628
 907       2.212e+00       9.357e+00       6.224e-01          -0.052           0.083          -0.995       1.779e-02          0.5237
 908       2.149e+00       9.356e+00       6.273e-01          -0.118           0.097          -0.988       1.117e-02          0.7790
 909       2.117e+00       9.356e+00       6.371e-01          -0.644           0.196          -0.739       5.026e-03          0.7651
 910       2.117e+00       9.354e+00       6.579e-01          -0.846           0.156           0.509       7.549e-03         -2.0756
 911       2.149e+00       9.353e+00       6.874e-01          -0.544           0.067           0.836       1.333e-02         -1.9197
 912       2.212e+00       9.351e+00       7.178e-01          -0.356           0.021           0.934       1.904e-02         -1.6409
 913       2.301e+00       9.349e+00       7.434e-01          -0.211          -0.010           0.977       2.393e-02         -1.4468
 914       2.411e+00       9.348e+00       7.597e-01          -0.090          -0.034           0.995       2.774e-02         -1.2537
 915       2.537e+00       9.348e+00       7.633e-01           0.028          -0.053           0.998       3.030e-02         -1.0313
 916       2.670e+00       9.349e+00       7.520e-01           0.138          -0.069           0.988       3.150e-02         -0.7288
 917       2.804e+00       9.350e+00       7.290e-01           0.203          -0.076           0.976       3.095e-02         -0.4242
 918       2.929e+00       9.352e+00       7.011e-01           0.233          -0.078           0.969       2.843e-02         -0.1817
 919       3.040e+00       9.353e+00       6.749e-01           0.230          -0.078           0.970       2.403e-02         -0.0063
 920       3.129e+00       9.355e+00       6.551e-01           0.199          -0.077           0.977       1.812e-02          0.1097
 921       3.192e+00       9.355e+00       6.437e-01           0.149          -0.075           0.986       1.121e-02          0.1798
 922       3.224e+00       9.356e+00       6.393e-01           0.097          -0.073           0.993       3.786e-03          0.2070
Strip 36
 923       3.231e+00       9.554e+00       6.526e-01          -0.022           0.071          -0.997       2.621e-03          0.1150
 924       3.200e+00       9.554e+00       6.525e-01           0.012           0.069          -0.998       7.709e-03          0.0943
 925       3.140e+00       9.554e+00       6.506e-01           0.042           0.068          -0.997       1.236e-02          0.0647
 926       3.054e+00       9.554e+00       6.461e-01           0.061           0.067          -0.996       1.630e-02          0.0267
 927       2.947e+00       9.554e+00       6.393e-01           0.066           0.066          -0.996       1.929e-02         -0.0085
 928       2.825e+00       9.555e+00       6.319e-01           0.057           0.067          -0.996       2.115e-02         -0.0287
 929       2.696e+00       9.555e+00       6.261e-01           0.034           0.070          -0.997       2.176e-02         -0.0275
 930       2.567e+00       9.555e+00       6.246e-01          -0.012           0.077          -0.997       2.112e-02          0.0260
 931       2.446e+00       9.555e+00       6.278e-01          -0.042           0.081          -0.996       1.928e-02          0.1309
 932       2.339e+00       9.555e+00       6.326e-01          -0.048           0.082          -0.995       1.630e-02          0.2580
 933       2.253e+00       9.555e+00       6.368e-01          -0.052           0.083          -0.995       1.237e-02          0.4141
 934       2.193e+00       9.554e+00       6.415e-01          -0.118           0.097          -0.988       7.768e-03          0.6682
 935       2.161e+00       9.554e+00       6.510e-01          -0.645           0.196          -0.739       3.494e-03          0.8478
 936       2.161e+00       9.552e+00       6.711e-01          -0.846           0.156           0.510       5.251e-03         -1.5541
 937       2.193e+00       9.551e+00       6.997e-01          -0.544           0.067           0.836       9.275e-03         -1.6217
 938       2.253e+00       9.549e+00       7.290e-01          -0.356           0.021           0.934       1.325e-02         -1.4150
 939       2.339e+00       9.547e+00       7.537e-01          -0.211          -0.010           0.977       1.664e-02         -1.2464
 940       2.446e+00       9.546e+00       7.695e-01          -0.090          -0.034           0.995       1.929e-02         -1.0753
 941       2.567e+00       9.546e+00       7.730e-01           0.028          -0.053           0.998       2.107e-02         -0.8852
 942       2.696e+00       9.547e+00       7.621e-01           0.138          -0.069           0.988       2.190e-02         -0.6320
 943       2.825e+00       9.548e+00       7.399e-01           0.203          -0.076           0.976       2.152e-02         -0.3870
 944       2.947e+00       9.550e+00       7.129e-01           0.233          -0.078           0.969       1.977e-02         -0.2021
 945       3.054e+00       9.551e+00       6.875e-01           0.230          -0.078           0.970       1.671e-02         -0.0726
 946       3.140e+00       9.553e+00       6.685e-01           0.199          -0.077           0.977       1.260e-02          0.0141
 947       3.200e+00       9.553e+00       6.574e-01           0.149          -0.075           0.986       7.795e-03          0.0677
 948       3.231e+00       9.554e+00       6.532e-01           0.097          -0.073           0.993       2.633e-03          0.0876
Strip 37
 949       3.237e+00       9.686e+00       6.619e-01          -0.022           0.071          -0.997       1.543e-03         -0.3308
 950       3.206e+00       9.686e+00       6.618e-01           0.012           0.069          -0.998       4.540e-03         -0.3472
 951       3.147e+00       9.687e+00       6.600e-01           0.042           0.068          -0.997       7.279e-03         -0.3389
 952       3.063e+00       9.687e+00       6.555e-01           0.061           0.067          -0.996       9.601e-03         -0.2917
 953       2.959e+00       9.687e+00       6.489e-01           0.066           0.066          -0.996       1.136e-02         -0.2386
 954       2.840e+00       9.688e+00       6.417e-01           0.057           0.067          -0.996       1.245e-02         -0.1953
 955       2.714e+00       9.688e+00       6.360e-01           0.034           0.070          -0.997       1.282e-02         -0.1563
 956       2.588e+00       9.688e+00       6.345e-01          -0.012           0.077          -0.997       1.244e-02         -0.0913
 957       2.469e+00       9.688e+00       6.377e-01          -0.042           0.081          -0.996       1.135e-02          0.0032
 958       2.365e+00       9.688e+00       6.423e-01          -0.048           0.082          -0.995       9.597e-03          0.1069
 959       2.281e+00       9.687e+00       6.465e-01          -0.052           0.083          -0.995       7.285e-03          0.2342
 960       2.222e+00       9.687e+00       6.511e-01          -0.118           0.097          -0.988       4.575e-03          0.4608
 961       2.191e+00       9.687e+00       6.604e-01          -0.645           0.196          -0.739       2.057e-03          0.8361
 962       2.191e+00       9.685e+00       6.800e-01          -0.846           0.155           0.510       3.093e-03         -1.0520
 963       2.222e+00       9.683e+00       7.079e-01          -0.544           0.067           0.837       5.463e-03         -1.3010
 964       2.281e+00       9.681e+00       7.365e-01          -0.356           0.021           0.934       7.801e-03         -1.1410
 965       2.365e+00       9.680e+00       7.607e-01          -0.211          -0.010           0.977       9.800e-03         -1.0027
 966       2.469e+00       9.679e+00       7.761e-01          -0.090          -0.034           0.995       1.136e-02         -0.8740
 967       2.588e+00       9.678e+00       7.795e-01           0.028          -0.053           0.998       1.241e-02         -0.7396
 968       2.714e+00       9.679e+00       7.689e-01           0.138          -0.069           0.988       1.290e-02         -0.5686
 969       2.840e+00       9.681e+00       7.472e-01           0.203          -0.076           0.976       1.267e-02         -0.4358
 970       2.959e+00       9.682e+00       7.208e-01           0.233          -0.078           0.969       1.164e-02         -0.3958
 971       3.063e+00       9.684e+00       6.960e-01           0.230          -0.078           0.970       9.840e-03         -0.4326
 972       3.147e+00       9.685e+00       6.774e-01           0.199          -0.077           0.977       7.419e-03         -0.4798
 973       3.206e+00       9.686e+00       6.666e-01           0.149          -0.075           0.986       4.590e-03         -0.4804
 974       3.237e+00       9.686e+00       6.625e-01           0.097          -0.073           0.993       1.550e-03         -0.4698
Strip 38
 975       3.239e+00       9.753e+00       6.666e-01          -0.022           0.071          -0.997       5.096e-04         -0.9042
 976       3.209e+00       9.753e+00       6.664e-01           0.012           0.069          -0.998       1.499e-03         -0.9439
 977       3.151e+00       9.753e+00       6.647e-01           0.042           0.068          -0.997       2.403e-03         -0.9197
 978       3.068e+00       9.753e+00       6.603e-01           0.061           0.067          -0.996       3.170e-03         -0.7528
 979       2.964e+00       9.754e+00       6.538e-01           0.066           0.066          -0.996       3.751e-03         -0.5413
 980       2.847e+00       9.754e+00       6.466e-01           0.057           0.067          -0.996       4.112e-03         -0.3759
 981       2.723e+00       9.755e+00       6.409e-01           0.034           0.070          -0.997       4.231e-03         -0.2633
 982       2.598e+00       9.755e+00       6.395e-01          -0.012           0.077          -0.997       4.106e-03         -0.1699
 983       2.481e+00       9.755e+00       6.426e-01          -0.042           0.081          -0.996       3.748e-03         -0.0794
 984       2.378e+00       9.754e+00       6.472e-01          -0.048           0.082          -0.995       3.169e-03          0.0064
 985       2.294e+00       9.754e+00       6.513e-01          -0.052           0.083          -0.995       2.405e-03          0.1035
 986       2.236e+00       9.754e+00       6.558e-01          -0.118           0.097          -0.988       1.510e-03          0.2677
 987       2.206e+00       9.753e+00       6.650e-01          -0.645           0.196          -0.739       6.790e-04          0.7659
 988       2.206e+00       9.752e+00       6.845e-01          -0.846           0.155           0.510       1.021e-03         -0.6698
 989       2.236e+00       9.750e+00       7.120e-01          -0.544           0.067           0.837       1.804e-03         -1.0218
 990       2.294e+00       9.748e+00       7.403e-01          -0.356           0.021           0.934       2.576e-03         -0.8949
 991       2.378e+00       9.746e+00       7.642e-01          -0.211          -0.010           0.977       3.236e-03         -0.7984
 992       2.481e+00       9.745e+00       7.794e-01          -0.090          -0.034           0.995       3.751e-03         -0.7130
 993       2.598e+00       9.745e+00       7.828e-01           0.028          -0.053           0.998       4.096e-03         -0.6225
 994       2.723e+00       9.746e+00       7.723e-01           0.138          -0.069           0.988       4.259e-03         -0.5161
 995       2.847e+00       9.747e+00       7.508e-01           0.203          -0.076           0.976       4.184e-03         -0.4715
 996       2.964e+00       9.749e+00       7.248e-01           0.233          -0.078           0.969       3.844e-03         -0.5563
 997       3.068e+00       9.751e+00       7.003e-01           0.230          -0.078           0.970       3.249e-03         -0.7843
 998       3.151e+00       9.752e+00       6.819e-01           0.199          -0.077           0.977       2.449e-03         -1.0480
 999       3.209e+00       9.753e+00       6.712e-01           0.149          -0.075           0.986       1.515e-03         -1.1754
1000       3.239e+00       9.753e+00       6.671e-01           0.097          -0.073           0.993       5.118e-04         -1.2051










